140

  C        11.7299071538        6.5112029030        0.6843275034
  C        10.7939392144        7.2340769030        1.4475936754
  C         9.6622304932        7.8104013145        0.8435252728
  C         8.6524170638        8.5484931172        1.6064394732
  C         7.4719212530        8.8697361327        1.0992589986
  C        11.0621116768        7.6161138323        2.9433606511
  C        12.0270339887        8.5450072819        3.2942860776
  C        12.0020854164        9.0468962725        4.6151156059
  C        11.0947175254        8.5828311335        5.5816032906
  C        10.1243731215        7.6339292019        5.2041557920
  C        10.1727850684        7.1605644342        3.9149724732
  H         8.8368353502        8.6734967607        2.7093544120
  H         6.7436247600        9.4563100906        1.6428658484
  H        12.7438495138        8.8804359253        2.6079954518
  H        12.6219671300        9.8779212857        4.8136307420
  H        11.0306556454        9.0065519313        6.5380954197
  H         9.3277308028        7.2896983625        5.8948156921
  H         9.4987430177        6.2626646449        3.6942874207
  C        11.6034827787        6.4160897184       -0.8763249565
  C        12.6662774724        5.8021695550       -1.6368764274
  C        13.7728422671        5.2315605741       -0.9981154585
  C        13.8245548223        5.2462693993        0.5172701685
  C        12.7302719501        5.7033367174        1.2868721008
  C         9.4749350490        7.6749401752       -0.6289237312
  C        10.5012317772        7.1517732473       -1.4516212815
  C        10.5595607371        7.5778399596       -2.8994086781
  C        11.3385065644        8.6730926016       -3.1915368766
  C        11.4590906337        9.1992679608       -4.5231896245
  C        10.6322393059        8.7178201905       -5.5524530951
  C         9.7131013883        7.6763179399       -5.1767437484
  C         9.6140898641        7.1394173368       -3.8801363159
  H         8.9736958210        6.2631301847       -3.6255251942
  H         9.0136203941        7.2510381495       -5.9336981805
  H        10.7711846611        8.9688423425       -6.6465928211
  H        12.2158173915        9.9666537624       -4.8129199204
  H        11.9250106989        9.2118605156       -2.5166862985
  C         8.2537635523        8.1973721639       -1.1480142667
  C         7.3115120661        8.7698285717       -0.3146643974
  H         6.4073164091        9.1091008883       -0.7970772041
  H         8.1014163704        8.2009716353       -2.2257453044
  C        12.6848014255        5.2633657995        2.7990485788
  C        11.8149611566        4.2499460208        3.1571006019
  C        11.7540632153        3.7931259732        4.5228458508
  C        12.6763220566        4.2852621671        5.4696299675
  C        13.4988963899        5.3783886270        5.1179298611
  C        13.5532773636        5.7626268263        3.7720774911
  H        14.2309067208        6.5523867149        3.4270802096
  H        14.1899663067        5.8508657465        5.8296142139
  H        12.7548243064        3.9297431715        6.5280060656
  H        11.0536069187        2.9823625645        4.7582252879
  H        11.3207753193        3.6972651886        2.3026400195
  C        14.8414240866        4.4560319497        1.1647315058
  C        15.8738402906        3.8670956185        0.4349751095
  C        15.9085514912        3.9221301507       -0.9562394565
  C        14.8714534258        4.5322896270       -1.6617492858
  H        14.8310056041        4.5987481960       -2.7365954473
  H        16.7004648123        3.3360708732       -1.4665078484
  H        16.6957975062        3.3168720797        0.9941105018
  H        14.9831892839        4.5407734981        2.2946256839
  C        12.5230069524        5.5385016226       -3.1074952316
  C        11.7543711798        4.4606928878       -3.5179318320
  C        11.7792774910        3.9930046884       -4.9110085269
  C        12.5971388356        4.7447593305       -5.8055352913
  C        13.2980007760        5.8884897376       -5.3434658281
  C        13.3879732535        6.2349838133       -3.9996335968
  H        14.0318095411        6.9529714489       -3.5924274804
  H        13.8786515869        6.2743374740       -6.1800732638
  H        12.4366863649        4.4859360691       -6.8113271906
  H        11.2427232137        3.0814669737       -5.1994174400
  H        11.1472094573        3.8752794005       -2.7904202810
  C        18.6966161097        6.6893688357        0.6332955307
  C        17.6949959254        7.4016775496        1.2496285925
  C        16.6134920863        7.9953878435        0.5109029403
  C        15.5015076055        8.6767608842        1.1179108877
  C        14.4545951555        9.2022075894        0.3850341889
  C        17.7731579113        7.7041069506        2.7602046974
  C        18.4400381880        8.8872038399        3.0551655331
  C        18.5602114205        9.2842187043        4.3669373759
  C        18.1093302243        8.4791657389        5.4628580037
  C        17.3956020062        7.3196014371        5.1046668910
  C        17.2297769328        6.9041526568        3.7687938582
  H        15.4935899822        8.6441729436        2.1872259221
  H        13.5755870232        9.5418161002        0.9134022653
  H        18.8195118075        9.4648002289        2.2056661340
  H        18.9896664574       10.2463139956        4.6175555154
  H        18.0346488106        8.8184791545        6.5052842329
  H        16.9645169793        6.6521351881        5.8008009105
  H        16.6571755661        6.0066805610        3.5086091389
  C        18.7494362994        6.6550802045       -0.8632761958
  C        19.7533105355        5.9327586013       -1.5080871107
  C        20.7802838205        5.3232488919       -0.7806126679
  C        20.8451868039        5.4889382935        0.6490028228
  C        19.7582476622        6.0449698736        1.3943441102
  C        16.6598116661        8.0049857774       -0.9431392476
  C        17.7620752044        7.4491306557       -1.6407711810
  C        17.7852490563        7.7113173776       -3.1269302153
  C        18.3655218794        8.8788961496       -3.6046197915
  C        18.3865651734        9.1262243159       -4.9853398173
  C        17.6666455348        8.3604177528       -5.8701653340
  C        16.8478648179        7.3298729233       -5.3275470648
  C        16.8837851983        7.0181794630       -3.9767217050
  H        16.2778186045        6.3211432586       -3.4712438109
  H        16.1051927200        6.8650690983       -5.9499445950
  H        17.6022213931        8.5876242600       -6.9161421161
  H        18.9977232591        9.9593142628       -5.4247507877
  H        19.0260954010        9.4990715554       -2.9526957890
  C        15.6767713287        8.7220012796       -1.6522570937
  C        14.5854670401        9.3152857809       -1.0418722978
  H        13.8514887742        9.8485897422       -1.7189003037
  H        15.7125565898        8.7622932167       -2.7222681283
  C        19.6921538039        5.6442362187        2.7881178990
  C        19.0466384307        4.4061529603        3.1916709760
  C        19.1655988347        3.9886769190        4.4861722960
  C        20.0293397387        4.5714847833        5.4522314456
  C        20.6483807119        5.7650263570        5.1004753450
  C        20.3850031621        6.3232173824        3.8213316667
  H        20.7066920837        7.3651618174        3.6328364513
  H        21.1458097493        6.3084999514        5.8920883588
  H        20.2440672521        4.1717459114        6.4877696100
  H        18.6783024409        2.9882648521        4.7262609138
  H        18.5476021314        3.8099330896        2.4279288440
  C        22.0596058211        5.0120050803        1.3197016123
  C        23.0268786905        4.3844062359        0.6204874894
  C        22.8724206093        4.0264708347       -0.7131896894
  C        21.8199443207        4.5573589744       -1.4350956849
  H        21.6825226709        4.2468786509       -2.4573314320
  H        23.6267981666        3.5096710432       -1.3143871044
  H        23.8340861073        3.9407087941        1.2043656290
  H        22.1319717621        5.1829281410        2.4048706953
  C        19.7805466253        5.5359109999       -2.9198565354
  C        19.0575296596        4.4742096456       -3.2869983841
  C        19.0760882478        3.9390043846       -4.5811798427
  C        19.7459288918        4.6444382428       -5.5898055462
  C        20.3344063934        5.8946683701       -5.2746694851
  C        20.3895346706        6.3095201768       -3.8852268946
  H        20.8441904099        7.2524202109       -3.5415662519
  H        20.9485781598        6.4032435212       -5.9314285277
  H        19.8541273493        4.2480679213       -6.5626150663
  H        18.4889519285        3.0046994012       -4.8111138821
  H        18.4087488070        4.0090325039       -2.5370315501
