140

  C         4.1403226201       -0.7045276784       13.8690240708
  C         5.1662988618       -0.0749206234       14.6326798720
  C         6.2526332956        0.5480742204       13.9743091705
  C         7.2299998435        1.2322830911       14.6597820103
  C         8.3003150062        1.7743973134       14.0112582953
  C         5.0211278320        0.2171467107       16.1235252304
  C         4.0828576068        1.2343202792       16.4446963035
  C         4.1008851489        1.8869814915       17.6466894510
  C         5.0273674137        1.5144167207       18.6318781895
  C         5.9101218466        0.4766904125       18.3252215231
  C         5.9677344870       -0.1275304213       17.0839960334
  H         7.0008661739        1.3221913569       15.7106161817
  H         9.1137280820        2.3005272018       14.5987885526
  H         3.4034454525        1.3911934580       15.6566544473
  H         3.4597180738        2.7237955825       17.8364935278
  H         5.0810626857        1.9959290397       19.6179158978
  H         6.5592448570        0.0243270194       19.1517457339
  H         6.7851200611       -0.8556633287       16.8894119739
  C         4.1410029651       -0.7689576664       12.4169315477
  C         3.1220952339       -1.4217947805       11.7009548664
  C         2.0131935205       -2.0691176204       12.3677727854
  C         1.9991298301       -2.0230915644       13.8534800958
  C         3.0797618726       -1.3918756665       14.5806847697
  C         6.2637005175        0.4899647877       12.5413957934
  C         5.2358421576       -0.1110961765       11.8105969508
  C         5.2560421067        0.0935234072       10.3326933297
  C         4.6959162768        1.3091255763        9.9522603700
  C         4.6734776611        1.6795987139        8.6337135690
  C         5.2352920146        0.9132008145        7.6370812071
  C         5.9721014361       -0.1970384042        7.9969737467
  C         5.9281702621       -0.7117873818        9.3676264409
  H         6.2854528053       -1.7275875462        9.5994981581
  H         6.4878848305       -0.7716672400        7.2178938101
  H         5.2635610178        1.1572477926        6.6012347557
  H         4.1131760640        2.5812696169        8.4654378172
  H         4.1746939827        1.9167479643       10.6359147412
  C         7.3897188142        0.9301912889       11.8991798153
  C         8.4027868464        1.5401248373       12.5872007306
  H         9.3115849579        1.8178812681       12.0168676355
  H         7.4011680400        0.8335475809       10.8348141807
  C         3.1508124593       -1.8065504449       16.0221587075
  C         4.0721041611       -2.6321433974       16.7067990015
  C         3.8873874102       -3.0632647804       18.0186614619
  C         2.8862965203       -2.5696945425       18.8621777488
  C         1.9994260508       -1.6842122050       18.2035751633
  C         2.0809954999       -1.3967615618       16.8340550082
  H         1.4122845219       -0.6830144789       16.4393893117
  H         1.3758628639       -1.0401202288       18.7951228748
  H         2.7432389210       -2.7503736056       19.9089411798
  H         4.6433168618       -3.6986484550       18.5416088644
  H         4.9552927445       -2.9162740416       16.1805004332
  C         0.8714020921       -2.6398262876       14.4694791283
  C        -0.1929993003       -3.0966764864       13.7352618816
  C        -0.1376943590       -3.1651032731       12.3219341546
  C         0.9844595574       -2.7446680737       11.6370643814
  H         1.0289275374       -2.9299587183       10.5842494593
  H        -0.9984055827       -3.5814354450       11.7794113657
  H        -1.0792921163       -3.2505667749       14.2704110505
  H         0.7929743690       -2.4614803337       15.5002037782
  C         3.2170489521       -1.7328661892       10.2453740477
  C         3.8808142152       -2.8905981945        9.9267654512
  C         3.8252619188       -3.3714377512        8.6065914993
  C         3.0489525539       -2.6779047790        7.6313871018
  C         2.4863027379       -1.4803835340        8.0213413119
  C         2.6208054939       -0.9699515607        9.2830086216
  H         2.2628666922        0.0481800514        9.4771992263
  H         1.9987412049       -0.7578795710        7.3520270195
  H         3.0137138711       -2.9292219117        6.5595236507
  H         4.2854467482       -4.3916801379        8.4399994844
  H         4.4031295293       -3.4655851625       10.7230967956
  C        11.4151643440       -0.6662326253       14.1104298724
  C        12.5210189542        0.0710337415       14.6666394773
  C        13.5863064812        0.6091259402       13.8925483897
  C        14.6372756563        1.4438426332       14.4131887093
  C        15.5283955679        2.1964197440       13.6514841335
  C        12.4546327917        0.6000981427       16.0765258935
  C        11.6368304922        1.7100657816       16.3733630559
  C        11.5717773593        2.3384929203       17.6469651565
  C        12.3878410630        1.7744486169       18.6545057483
  C        13.2123172819        0.6633825349       18.3880323135
  C        13.1722841028        0.0315946342       17.1575830630
  H        14.6091682168        1.6422024252       15.4626187868
  H        16.1263292806        3.0464471209       14.0466636180
  H        10.9390213534        2.0984570835       15.6497954740
  H        10.8615638928        3.1145709545       17.7898580979
  H        12.3308688571        2.1398167571       19.6958618880
  H        13.8631463461        0.2806119336       19.1752262277
  H        13.7501250965       -0.8495698216       16.8738314633
  C        11.2790791903       -0.6955857544       12.6729259270
  C        10.2458626498       -1.4865502193       12.0432666928
  C         9.1330350300       -1.8728209475       12.8339119160
  C         9.2538111302       -1.8494594271       14.2203441594
  C        10.3936828408       -1.3033098797       14.8813817335
  C        13.4976303369        0.5186429074       12.4597520459
  C        12.3151215693       -0.0523436668       11.8799061893
  C        12.1018890160        0.2808536782       10.4317303970
  C        11.2612929220        1.2326318594        9.9819695437
  C        11.3005969921        1.6579615699        8.6300367263
  C        12.2315743128        1.0663349127        7.7413190961
  C        13.0047127195        0.0011179762        8.1915890541
  C        12.9694070004       -0.3757045135        9.5423921586
  H        13.5397246882       -1.2869092961        9.7818791995
  H        13.8102940389       -0.3938592667        7.5670923162
  H        12.3790790253        1.5986254209        6.8107926541
  H        10.7681897717        2.4660158015        8.0900876395
  H        10.4475752877        1.7507808678       10.5082060084
  C        14.4800243331        1.2022842078       11.7095809695
  C        15.5415743952        1.9915535808       12.2644271329
  H        16.2152940551        2.4595213576       11.5288314311
  H        14.4416813269        1.1223380275       10.6503806106
  C        10.6198922643       -1.6500570605       16.3183264368
  C        11.5055316576       -2.6364018542       16.7268064864
  C        11.5134944255       -3.1228517171       18.0388423635
  C        10.6703640906       -2.5524090402       19.0171416011
  C         9.7732884721       -1.6013439372       18.6319828464
  C         9.8400156645       -1.0869978720       17.3264944610
  H         9.2196071835       -0.2157608345       17.1127722645
  H         9.0933856709       -1.2093754023       19.3514385512
  H        10.6675364883       -2.9241173056       20.0278722739
  H        12.1723920081       -3.9523458151       18.3157147536
  H        12.0965075084       -3.1201704792       15.9937789426
  C         8.2499599461       -2.5371156630       14.9619029095
  C         7.2025925792       -3.2029304153       14.3261981111
  C         7.0748967702       -3.1492104246       12.9143451054
  C         8.0909286664       -2.5542825298       12.1844572586
  H         8.0045002558       -2.4712241272       11.1280276904
  H         6.2597617985       -3.6755765755       12.4612970197
  H         6.4332921049       -3.7195384908       14.8905319311
  H         8.3587741958       -2.4996724124       16.0219350341
  C        10.2792322861       -1.8225783601       10.5642404313
  C        11.1671195558       -2.8239786069       10.0944363128
  C        11.2241369313       -3.2196035044        8.7846011257
  C        10.3930454555       -2.6581163493        7.8467975725
  C         9.5591894810       -1.6661215756        8.2670497788
  C         9.4250182867       -1.2854943611        9.6035837496
  H         8.6860158206       -0.5279532376        9.7695640311
  H         8.8763304934       -1.0998635938        7.5522386149
  H        10.4080454073       -2.8585774314        6.7759907450
  H        11.9806692774       -3.9120326892        8.4692294902
  H        11.9500078381       -3.2161062738       10.7853082567
