140

  C        10.7174930465        7.5077183641        1.1645578298
  C         9.5611887442        8.1350463505        1.8820667904
  C         8.5313207985        8.6646096356        1.0872406783
  C         7.3259798113        9.1525412931        1.7357327847
  C         6.2215497040        9.5004148085        1.0267316744
  C         9.6047044890        8.4301517958        3.3690429619
  C        10.4774175354        9.3803447087        3.8747592127
  C        10.6363799437        9.6004426277        5.2408862352
  C         9.8155261125        8.9033810697        6.1862878398
  C         8.9137416986        7.9965883082        5.6974890483
  C         8.8754944392        7.6687554830        4.3280778189
  H         7.3390472431        9.1633284247        2.8449761595
  H         5.3370042788        9.8026730368        1.5412717106
  H        10.9721852786       10.1069259727        3.2204500732
  H        11.3219233341       10.3919023502        5.5934349759
  H         9.7285588900        9.2805649014        7.2282423711
  H         8.3215943830        7.4181208168        6.3836892361
  H         8.3156441410        6.7999317903        3.9296547816
  C        10.7800406938        7.6172275073       -0.2667850305
  C        11.7729113688        6.8429855959       -0.9766821817
  C        12.8623978874        6.2255805556       -0.2466586909
  C        12.7604206437        6.1742625083        1.1268259729
  C        11.6138913664        6.7101302084        1.8323177072
  C         8.6312534418        8.7523440173       -0.3470704844
  C         9.7844983119        8.3436667090       -0.9959199516
  C         9.8714742861        8.6669148218       -2.4386811657
  C        10.6238182278        9.7634674905       -2.9046451894
  C        10.4411586833       10.2978681655       -4.1895512606
  C         9.5666793154        9.6530327461       -5.0304239830
  C         8.8696967907        8.5518296056       -4.5887257697
  C         9.0673462755        7.9190161730       -3.3707176708
  H         8.5782528777        7.0030662040       -3.0939623433
  H         8.0157041541        8.1551464620       -5.1977120551
  H         9.3384695900       10.1368954549       -5.9021897096
  H        11.0116951025       11.1717033364       -4.5226276055
  H        11.2478209151       10.2327514478       -2.1634507938
  C         7.5317550734        9.3139047193       -1.0348243880
  C         6.3250634800        9.6065583420       -0.4044510609
  H         5.4271682796       10.0641463783       -0.9800316653
  H         7.5978172457        9.5008229131       -2.1122084302
  C        11.6556063884        6.2898398048        3.2917845114
  C        11.2949494479        4.9419881558        3.5962116390
  C        11.3410818794        4.4353570500        4.9189082480
  C        11.8689804263        5.2605280720        5.9288501965
  C        12.3408327349        6.5294570506        5.6203690752
  C        12.2801425559        7.0246121991        4.2973303469
  H        12.7570524810        7.9441907579        4.0417717467
  H        12.8805187678        7.1166351822        6.3388891644
  H        11.9052181876        4.7736617409        6.8901615663
  H        10.9252613678        3.4498204465        5.0637593069
  H        10.8075070137        4.3985228839        2.8018178231
  C        13.7789385998        5.4732580446        1.8368517767
  C        14.8426475688        4.9436944085        1.1480831859
  C        14.8782990638        4.8924601340       -0.2347770139
  C        13.8539578056        5.4825804963       -0.9376925359
  H        13.9099104124        5.4916301589       -2.0511193433
  H        15.6557729818        4.2368998260       -0.6446057919
  H        15.6184053046        4.4032946549        1.6630868949
  H        13.8770249383        5.2810682214        2.8826950119
  C        11.6557522274        6.4447384420       -2.4340818110
  C        10.9939848139        5.3099875862       -2.8282010481
  C        11.1096726255        4.8024807803       -4.1361092831
  C        11.7833075354        5.5482215263       -5.1452611776
  C        12.6193736323        6.5570575189       -4.7072458207
  C        12.5142602118        7.0267194935       -3.3944707982
  H        13.2072402502        7.7562202004       -3.0107330463
  H        13.4364913179        6.9629935641       -5.3625748767
  H        11.7700272216        5.2865283016       -6.2369725763
  H        10.6165012498        3.7881815808       -4.2347239565
  H        10.4066751605        4.6480014810       -2.1767833939
  C        17.9746774968        7.2906794929        1.4704792325
  C        16.9638771778        7.9910500693        2.1440027795
  C        15.8876706108        8.5977332691        1.4580868868
  C        14.9758368488        9.4846721816        2.1618542271
  C        13.9147216277       10.0525064008        1.4643598477
  C        17.0582206334        8.3349803931        3.6012365239
  C        18.0378943372        9.3091379568        3.8910006862
  C        18.0439515293        9.9854962379        5.1408138799
  C        17.2075833954        9.5100280032        6.1152318415
  C        16.2695099189        8.5028495219        5.8476075734
  C        16.1789961002        7.8381766109        4.6075358314
  H        15.1996297744        9.6107452724        3.2181773230
  H        13.2547855833       10.7749926200        1.9492413525
  H        18.7386194115        9.5794792176        3.1604756803
  H        18.6910957125       10.8161406956        5.3646124171
  H        17.1928368622        9.9468390778        7.0898839842
  H        15.6246386206        8.2667883016        6.7078119654
  H        15.4001461052        7.1094175217        4.3554330006
  C        17.9175211539        7.2257031254       -0.0012410989
  C        18.9385008877        6.5689265807       -0.7331361517
  C        20.0811185660        6.1011967503       -0.0631987487
  C        20.1742286707        6.0990203783        1.3903561760
  C        19.1043294781        6.7141016225        2.1076596977
  C        15.8466105119        8.6034250319        0.0020431767
  C        16.9323959336        8.0204296018       -0.6371155509
  C        17.0992462061        8.5389242060       -2.0953927950
  C        17.7787920619        9.7228900665       -2.3690865842
  C        17.7378217937       10.3345888722       -3.6355996865
  C        17.0736293568        9.6765736435       -4.7016181229
  C        16.4587383966        8.4320499026       -4.4485319149
  C        16.4626620527        7.9284826980       -3.1763041884
  H        15.8099475996        7.0311705869       -2.9663181744
  H        16.0438578286        7.9586244419       -5.3101792881
  H        16.9553145987       10.0939457000       -5.6820003315
  H        18.1490000207       11.3596531975       -3.7946313525
  H        18.2900895395       10.2000775251       -1.5287204333
  C        14.7461024515        9.2044333785       -0.6615051828
  C        13.7832507528        9.8072221745        0.0845660363
  H        12.8097992507       10.0053695371       -0.3581824799
  H        14.7436230772        9.1983932934       -1.7465938969
  C        18.8958115047        6.3586921004        3.5288184713
  C        18.0317044460        5.2649172670        3.7929792801
  C        18.0186033732        4.7918992789        5.0776242968
  C        18.7541717571        5.4225303573        6.1456352148
  C        19.6451920631        6.4791307985        5.7884850842
  C        19.7216549523        6.9137289222        4.4711326660
  H        20.4706512526        7.6663474283        4.1331070435
  H        20.2204285142        6.9643106062        6.5421055940
  H        18.6091431920        5.1401352536        7.1971847594
  H        17.3856213568        3.9574707539        5.3598116664
  H        17.3807004765        5.0214319884        2.9408980247
  C        21.3026011381        5.4618202117        2.0342305485
  C        22.3415985723        4.9252859438        1.3117278466
  C        22.1802772150        4.8324556212       -0.0760406815
  C        21.1298214151        5.3761383972       -0.7329454363
  H        21.0232689476        5.2166654176       -1.8407380471
  H        23.0171289070        4.3151269299       -0.5820023077
  H        23.2423622631        4.5305532936        1.8498156846
  H        21.2725930072        5.4238629055        3.1044067923
  C        18.7922035114        6.2963702400       -2.2404918141
  C        17.9125716848        5.2689583212       -2.6710291832
  C        17.9612063075        4.9123265493       -4.0465978778
  C        18.8416320629        5.4717336584       -4.9136614609
  C        19.7800244735        6.3408958217       -4.4200704484
  C        19.7458274384        6.7360077282       -3.1247850225
  H        20.4834938610        7.4255156432       -2.7689485711
  H        20.5644846711        6.6489022840       -5.0614285583
  H        18.8532871953        5.1433781293       -5.9738318042
  H        17.2607933553        4.1866956598       -4.4869734802
  H        17.1566393491        4.7098309047       -2.1543407567
