140

  C        11.1094890187        7.0156789510        0.7471120912
  C        10.0696665484        7.7517604800        1.3909301550
  C         8.9605364582        8.2103778030        0.7196276161
  C         7.9455645228        8.9582747129        1.4148322987
  C         6.9405865385        9.4622069199        0.6421495974
  C        10.0592575366        8.1491919691        2.8827230158
  C        10.8848603554        9.1530343166        3.3708581911
  C        10.7617979258        9.6554740885        4.7092045502
  C         9.8007919220        9.1900401280        5.5446173551
  C         9.0173199494        8.0596993620        5.1716639251
  C         9.1532056535        7.5905210563        3.8646738739
  H         7.9534886063        9.1709497210        2.5234832431
  H         6.1852526270       10.0985924361        1.1625996679
  H        11.6050087885        9.6614576622        2.7760809390
  H        11.4058970479       10.5024443289        4.9479647420
  H         9.7901092622        9.5280707000        6.5202662221
  H         8.4293267096        7.5539086681        5.8928948489
  H         8.6128476516        6.6712184557        3.7232886194
  C        11.1484846324        6.9321209399       -0.7176879689
  C        12.1572127619        6.1658998952       -1.3186175455
  C        13.2825410244        5.7077414666       -0.5941882084
  C        13.2471725732        5.7382391908        0.8345392865
  C        12.1149987543        6.2935304217        1.4443093023
  C         8.8669863626        8.0519883112       -0.7056710331
  C        10.0096922812        7.5742836946       -1.3620449014
  C        10.0604548669        7.7972113532       -2.8293272743
  C        10.9102651415        8.8474908025       -3.2530484078
  C        10.8209596946        9.3604148118       -4.5183120414
  C         9.9984900579        8.7327688175       -5.4877672835
  C         9.2766350886        7.5577864719       -5.1184664173
  C         9.3142882043        7.0550331547       -3.7870485333
  H         8.6617020089        6.2506934099       -3.4140586072
  H         8.6681507146        6.9831863527       -5.8437668948
  H        10.0278066967        9.0690176651       -6.5629451469
  H        11.3949086544       10.2626728457       -4.8539652752
  H        11.4782725640        9.4014663660       -2.4836669376
  C         7.7712712160        8.5552025944       -1.3674956128
  C         6.8069294372        9.3554409582       -0.7395751331
  H         5.9917738907        9.8035809023       -1.2611246035
  H         7.6895100818        8.5514772434       -2.4680170257
  C        12.0118973488        6.0166494928        2.9414431327
  C        10.9913807279        5.1207021692        3.4501264620
  C        10.9641808433        4.7465592330        4.7876964460
  C        12.0179539392        5.0770007806        5.6119246387
  C        13.0112900105        5.9569417071        5.2283200634
  C        13.0503143700        6.4363202115        3.9093020616
  H        13.8198149405        7.1169809645        3.5727271368
  H        13.8304108460        6.2390271087        5.8824393057
  H        11.8645684950        4.6457184464        6.5803613149
  H        10.1431581440        4.1439495485        5.0751839300
  H        10.1500583326        4.8262204038        2.7525695324
  C        14.3602485937        5.2197680943        1.5764115731
  C        15.5226823002        4.8322871789        0.9428801542
  C        15.5742995971        4.6956990208       -0.5078775544
  C        14.4614851311        5.0691599914       -1.1923986901
  H        14.4027186301        4.8599949766       -2.2956599913
  H        16.4380281628        4.3033122594       -1.1539881278
  H        16.3885957944        4.5601677698        1.4584950076
  H        14.2681509505        5.0207328520        2.6636574998
  C        12.1912612218        5.8681659739       -2.8049063997
  C        11.6443154774        4.6384839162       -3.2563482705
  C        11.6468122407        4.3021768465       -4.6814033377
  C        12.2459953579        5.2153591474       -5.5992981227
  C        12.7981307097        6.4371603092       -5.1861508894
  C        12.7454522372        6.7684919132       -3.8200778425
  H        13.2697508373        7.5847084842       -3.4501462199
  H        13.2418504856        7.1671426618       -5.8762617133
  H        12.2288956658        5.1108689226       -6.6928735483
  H        11.2818912984        3.3111811337       -4.9408335787
  H        11.1019716632        3.9481037291       -2.5752737352
  C        18.5342328134        7.0395559062        0.6135213967
  C        17.5704537118        7.7310709292        1.3925805020
  C        16.3807547700        8.2323896010        0.7634365853
  C        15.2954722291        8.6936957726        1.5962137717
  C        14.3034157791        9.4306047073        1.0301289972
  C        17.7323612846        7.9822534185        2.8302950329
  C        18.4429774930        9.0815068181        3.3584983616
  C        18.3291529597        9.5486039101        4.6772254099
  C        17.4768961691        8.8358840058        5.5598437291
  C        16.7889136044        7.7247979682        5.1102648039
  C        16.9028830675        7.2659205004        3.7866365152
  H        15.4885793677        8.6604876552        2.6524113045
  H        13.4859784029        9.7738740182        1.5716766752
  H        19.1335525100        9.6186984864        2.7261887855
  H        18.8511105491       10.4304106164        5.0412346221
  H        17.3577851939        8.9859020540        6.6392188861
  H        16.0942504117        7.1859750638        5.8223756082
  H        16.2529859737        6.4367261817        3.4933178702
  C        18.4436240710        7.1433757666       -0.8476582136
  C        19.3214029872        6.2999540434       -1.6420625646
  C        20.4008380231        5.5830141761       -1.0529440445
  C        20.4841646439        5.4972759214        0.3978132911
  C        19.5026914425        6.1921046295        1.1749029492
  C        16.3280129595        8.4290475367       -0.6842369167
  C        17.3746828108        7.9053580381       -1.4946300057
  C        17.4758514142        8.3854716877       -2.8692888529
  C        18.3663405425        9.3326134241       -3.4085063418
  C        18.3973346284        9.6354602969       -4.7520744444
  C        17.5961930073        9.0106450344       -5.6513549973
  C        16.7612650098        7.9778773860       -5.2223844019
  C        16.6542997232        7.7559717944       -3.8492299888
  H        15.8861906249        7.0303127378       -3.5222174971
  H        16.0853633278        7.5116351009       -5.9070202286
  H        17.6411447634        9.3376391930       -6.7376668406
  H        19.1534729462       10.3559278809       -5.0434925716
  H        19.0723396348        9.7648178675       -2.6686299240
  C        15.1832273441        9.1014492555       -1.2299148139
  C        14.2625384395        9.5904367195       -0.3578746861
  H        13.4931517899       10.2832317552       -0.7506485611
  H        15.2360506128        9.2531017981       -2.3028093034
  C        19.5473677767        5.9050077652        2.6491496678
  C        18.8153004872        4.8384560238        3.1605470720
  C        18.8861859926        4.4164333327        4.4974271758
  C        19.7244787727        5.1468174782        5.3546807620
  C        20.4639088896        6.2336478221        4.8329849756
  C        20.4621299427        6.5638617986        3.4508969710
  H        20.9796102457        7.4289531661        2.9976668771
  H        21.0317506263        6.7607066858        5.5507373805
  H        19.8112304224        4.8134518678        6.3896988556
  H        18.3119107186        3.5546168527        4.7450262094
  H        18.1633202770        4.3191345650        2.4958689440
  C        21.5992015098        4.8388760134        0.9948990938
  C        22.5043551777        4.1074648904        0.2628012070
  C        22.4238520825        4.2210409843       -1.1651863423
  C        21.4600089289        4.9747602266       -1.7622579791
  H        21.4682458285        5.0151759861       -2.8527700773
  H        23.2600977451        3.8979607439       -1.7842811595
  H        23.3059872131        3.5081617822        0.6906890795
  H        21.6849762419        4.7715214842        2.0655824877
  C        19.1298013444        5.9473658312       -3.1166312166
  C        18.3117624217        4.8853384021       -3.4663381168
  C        18.3423312012        4.3538928077       -4.8173408371
  C        19.1812629057        4.9178618646       -5.7855910732
  C        19.9147289590        6.1067237270       -5.4235911540
  C        19.8972843144        6.5594329821       -4.0999858748
  H        20.6077297401        7.3005054012       -3.8456877374
  H        20.4966614740        6.7066919113       -6.1258007027
  H        19.0624363027        4.5476029131       -6.8236046436
  H        17.6308177648        3.5855200160       -5.0813341444
  H        17.7227538576        4.4632532653       -2.6407979832
