140

  C        11.5882139574        6.0632952601        0.3524454451
  C        10.6749892739        6.9284816458        1.0933308132
  C         9.6427121956        7.5287420443        0.3280981886
  C         8.7949948246        8.4891315524        0.9926366182
  C         7.7123770873        9.0779719975        0.3811820490
  C        10.8637231929        7.3056360206        2.5180100565
  C        11.8150978615        8.3774835588        2.8616165677
  C        11.9403472757        8.8044223027        4.1643132148
  C        11.1341030612        8.2018605755        5.1687256018
  C        10.1776937898        7.2299811559        4.8593843533
  C        10.0177005596        6.7977357326        3.5395595487
  H         9.0297258249        8.6500241659        2.0509022039
  H         6.9848744819        9.7036166411        0.8479661577
  H        12.2220725924        8.7533984616        2.0248029358
  H        12.7329521643        9.6189386418        4.3081550232
  H        11.0678116280        8.5061896071        6.2264602021
  H         9.5882871680        6.7577961462        5.6418024636
  H         9.4339303895        5.9488099443        3.2816263060
  C        11.5781112541        5.9813493850       -1.0876987153
  C        12.6041180781        5.2985692075       -1.8278026874
  C        13.6583157784        4.6543661959       -1.1563085172
  C        13.7758277600        4.8120939613        0.2715655332
  C        12.7104993074        5.3846431135        1.0072202107
  C         9.5774175031        7.3494744543       -1.0532330208
  C        10.6485149864        6.7954426169       -1.7872939062
  C        10.6463641393        7.0977027669       -3.2517259445
  C        11.3638971062        8.2272972469       -3.6505938637
  C        11.3220703122        8.7468894126       -4.9672541841
  C        10.5227167852        8.1469892297       -5.8964381548
  C         9.8314215010        7.0133664122       -5.5806900875
  C         9.8084978532        6.5249234016       -4.2285731910
  H         9.1452821298        5.6989664961       -3.9732215102
  H         9.2061183170        6.5210556682       -6.2893700843
  H        10.4056489504        8.5742785374       -6.9435984872
  H        12.0455869802        9.6104594608       -5.0723277715
  H        12.0203514310        8.7050828613       -2.9246543331
  C         8.5087166308        8.0860754442       -1.7088533247
  C         7.6214292665        8.8955792897       -1.0081459113
  H         6.7769960006        9.2576045304       -1.5568844755
  H         8.5605892072        8.1048149314       -2.8163502759
  C        12.8562749742        5.1458163961        2.4924593517
  C        11.9763784733        4.1577115396        3.0304569624
  C        11.8437602498        4.0802731976        4.4629126641
  C        12.8111598371        4.6849072922        5.2549517645
  C        13.8330948210        5.4521921242        4.6980281592
  C        13.8028913204        5.7616166874        3.3447531624
  H        14.5568801618        6.4531812063        3.0179549395
  H        14.5952691774        5.8796917752        5.3719722207
  H        12.8279140431        4.6025853504        6.3338841213
  H        11.0465461717        3.5080262756        4.9171209745
  H        11.1586047537        3.7173366438        2.3710807568
  C        14.9906201638        4.3627515330        0.8868874161
  C        15.9780480874        3.7757163668        0.1642389730
  C        15.8727054038        3.6531392813       -1.2444166153
  C        14.7384622111        4.0237649866       -1.8984305076
  H        14.6043447689        3.9443284942       -2.9578754715
  H        16.7313587799        3.2469692251       -1.8595328585
  H        16.8876084941        3.5334687251        0.7286886381
  H        14.9909601973        4.4803765802        1.9031466545
  C        12.5456717669        5.0355334257       -3.2985794497
  C        11.8271613159        3.8988281462       -3.8973608007
  C        12.0540258650        3.4936776694       -5.2072995114
  C        12.8915948982        4.2358034239       -6.0307257515
  C        13.5028237514        5.4187048625       -5.5216065730
  C        13.4004778487        5.6846134138       -4.1533772044
  H        14.0430290367        6.4861082642       -3.7965151454
  H        14.0897855510        6.0359721293       -6.0946621581
  H        12.9933161556        4.0019569033       -7.0959867183
  H        11.4144282321        2.7927988724       -5.7478441690
  H        11.0463229745        3.5214776501       -3.3368707077
  C        19.0236664883        6.1724557040        0.0611648327
  C        17.9964263016        6.8106586551        0.7870274592
  C        16.9002287416        7.4468752981        0.1383906191
  C        15.8715138429        8.0725478248        0.9880913837
  C        14.8914721991        8.7974519676        0.3198635027
  C        18.1247063067        7.0724666922        2.2772990479
  C        18.7561818657        8.2474319076        2.6821506459
  C        18.8660123373        8.6086232305        4.0251507146
  C        18.0876546735        7.8916642976        4.9611065212
  C        17.4185953731        6.7230711974        4.5512407692
  C        17.5088891870        6.2727646871        3.2563698338
  H        15.9025525102        8.0357894425        2.0589997958
  H        14.0341571733        9.2849584040        0.7895556807
  H        19.2484604585        8.7650399894        1.8905544355
  H        19.4662450279        9.4787543550        4.3121172840
  H        18.0559709984        8.3033666504        6.0039241532
  H        16.8713424451        6.1828655960        5.3217995312
  H        17.0213296250        5.3501650881        2.9005943486
  C        19.0330540481        6.3003143811       -1.4091403619
  C        20.0311188518        5.5950038075       -2.1443040374
  C        21.0682131708        4.9138345347       -1.4832611300
  C        21.1326244431        4.8011237570       -0.0719974819
  C        20.0466240757        5.3903213395        0.7204792454
  C        16.9141301688        7.5653955596       -1.3235587511
  C        18.0113620358        7.0968205261       -2.0332803893
  C        18.0478797282        7.4441926059       -3.5116719465
  C        18.9146250999        8.4829481215       -3.9503915402
  C        18.8212980643        9.0069345201       -5.2661979807
  C        17.8830623718        8.4167799908       -6.0802317411
  C        17.0376170221        7.3871692334       -5.7212945076
  C        17.1604662511        6.8242663803       -4.4448052567
  H        16.4589969467        6.0831595384       -4.1104629239
  H        16.4110638989        6.9748188342       -6.4592881489
  H        17.7520209396        8.8073961481       -7.1027264470
  H        19.4413505878        9.8877465745       -5.4862614853
  H        19.6006858804        8.8581700966       -3.2720061899
  C        15.7349877451        8.1616721552       -1.9539565987
  C        14.8305105535        8.7731044369       -1.1211864447
  H        13.9150113773        9.2227725668       -1.4739078265
  H        15.6259314234        8.0910467257       -3.0481112573
  C        20.1056446244        5.0403845131        2.1413644908
  C        19.5086052560        3.8579366042        2.5288765006
  C        19.4194754337        3.5606335969        3.9007527106
  C        20.0742245518        4.3665928669        4.8465844218
  C        20.8465891550        5.4180939990        4.4408114423
  C        20.8853375521        5.7378633492        3.0477535795
  H        21.4390615867        6.6163809136        2.6282060893
  H        21.3245952562        6.1051969413        5.1241351668
  H        19.9328170448        4.1577114147        5.8917641640
  H        18.9123768409        2.7177767903        4.1739961923
  H        19.0145444653        3.2679432251        1.7187466914
  C        22.1529150252        4.0721476081        0.5858937541
  C        23.1263994637        3.4045630532       -0.1772047122
  C        23.0478363295        3.5801421409       -1.6049515915
  C        22.0468138804        4.2238110243       -2.2518192519
  H        21.7880138555        4.0845115605       -3.3016101095
  H        23.7875561842        3.0985268053       -2.2008711897
  H        23.8534480364        2.7668770864        0.3323758237
  H        21.9680591582        3.8264382484        1.6055624384
  C        19.9014497048        5.2679446183       -3.5832277838
  C        19.2022990545        4.1106280985       -3.9060075538
  C        19.3900893972        3.5380684384       -5.2107786745
  C        20.0833858653        4.2742855945       -6.1731184544
  C        20.6721338905        5.4857630344       -5.8906803912
  C        20.5787840655        5.9335329791       -4.5485936224
  H        21.0333595417        6.8922997650       -4.2651715259
  H        21.3585919149        5.9938543159       -6.6478060940
  H        20.0689781900        3.8244634378       -7.1777345332
  H        19.0109370031        2.5717668443       -5.4345579320
  H        18.7160594231        3.6416950604       -3.1201669053
