140

  C         9.4510281362        7.4570666664        1.2414337387
  C         8.4350794480        8.2053511768        1.9093652106
  C         7.3356829459        8.7730430718        1.2606562078
  C         6.3315326762        9.5683085191        1.8929116525
  C         5.3523682222       10.1819115420        1.1985559368
  C         8.7075167309        8.5925553159        3.3851757770
  C         9.5748767123        9.7432643990        3.3515643396
  C         9.8314507694       10.4604090307        4.5266179606
  C         9.1278275156       10.1464399616        5.7042088826
  C         8.1290082662        9.1648653776        5.6398676165
  C         7.8852559360        8.3952459398        4.4992656071
  H         6.2599620434        9.5672219084        3.0097811990
  H         4.5419862510       10.7278292654        1.7410609131
  H        10.1122502742        9.9384943739        2.4243488329
  H        10.6263182858       11.2006450852        4.4195863717
  H         9.2052608920       10.7413422429        6.5462620320
  H         7.3903623352        9.1459189633        6.3833087198
  H         7.1677845806        7.5970880249        4.4364648413
  C         9.4581153707        7.4776197513       -0.1913237113
  C        10.6158979692        7.0121458811       -0.9631284342
  C        11.7254719834        6.5517948491       -0.2506634990
  C        11.5907023405        6.2797400063        1.1786449421
  C        10.5220217182        6.7326458077        1.9273748250
  C         7.3382803687        8.7406045846       -0.1841476080
  C         8.4417372380        8.2670338118       -0.8862611464
  C         8.5274417459        8.6294363217       -2.3416801093
  C         9.1981417808        9.8727793726       -2.6936988305
  C         9.2667108141       10.4386726945       -3.9580012309
  C         8.7564242870        9.6124620013       -4.9730135377
  C         7.9523986713        8.4984708532       -4.6954286139
  C         7.7979024863        8.0193564470       -3.3780642128
  H         7.1216374445        7.1640971976       -3.2678644351
  H         7.5571786538        7.8683697939       -5.4990418675
  H         8.7930583236        9.9471375445       -6.0542168762
  H         9.8178544942       11.3476163172       -4.1899824047
  H         9.8326607315       10.2945491075       -1.9199390862
  C         6.2718420928        9.3590300018       -0.9176413495
  C         5.3152237713       10.1140930913       -0.1978938366
  H         4.5147243405       10.6277330690       -0.7324050205
  H         6.1913347205        9.3421901246       -1.9670520144
  C        10.5135442026        6.5400191027        3.4508585938
  C         9.6949392186        5.4619042541        3.8693701779
  C         9.7800318798        5.0930168947        5.2904013750
  C        10.6217048885        5.7450471916        6.1959908904
  C        11.4585215109        6.7592050895        5.6802184707
  C        11.3862100030        7.1311573440        4.3591188962
  H        11.9841154857        7.9122536057        3.9716035553
  H        12.0803985541        7.2284029468        6.4238386772
  H        10.6319796521        5.5784994043        7.2992455392
  H         9.0720089116        4.4003126443        5.7719206348
  H         9.0244971405        4.9345248508        3.1848868923
  C        12.6654798631        5.5842223202        1.8455332711
  C        13.6821181088        5.0751858143        1.1372878052
  C        13.8412558761        5.2761818711       -0.2797482327
  C        12.9024035919        5.9679225199       -0.9575572955
  H        12.8815157959        6.0586134077       -2.0082108733
  H        14.6851148072        4.8424319522       -0.8905772939
  H        14.4427011433        4.4805414509        1.6527707156
  H        12.4521829040        5.3370690702        2.8278076797
  C        10.5914470708        6.7641172687       -2.4734306235
  C         9.8138632771        5.6398345941       -2.8631452436
  C         9.7675934273        5.1668862915       -4.1206864926
  C        10.5018904049        5.8966034084       -5.1411701758
  C        11.3490963105        6.9380865914       -4.7613872023
  C        11.3287257667        7.4389075098       -3.4658511120
  H        12.0901631112        8.1581828144       -3.0861487007
  H        12.0074360547        7.3654604223       -5.5098270834
  H        10.4957260093        5.5946218013       -6.2155126476
  H         9.2009229180        4.2831793502       -4.3903034235
  H         9.3731654567        5.0290721389       -2.0524286366
  C        16.9678625324        7.6185176167        1.2611040201
  C        15.9408170544        8.3199034417        1.9786322515
  C        14.8306036933        8.9003620348        1.3118836675
  C        13.7272327086        9.5805165421        1.9861315574
  C        12.8096826714       10.2686017394        1.3121018296
  C        16.1301748231        8.7116003229        3.4346196316
  C        17.1489560330        9.5980783676        3.8319083025
  C        17.1086754941       10.1221542034        5.1642065161
  C        16.1212854006        9.7693593719        6.0954222408
  C        15.1532323358        8.8868962616        5.6835702039
  C        15.1623876433        8.3394570321        4.4221053213
  H        13.7275783054        9.5697528962        3.0990675555
  H        12.1075444546       10.8468621842        1.8093439426
  H        17.9003976983        9.9008482534        3.1384545358
  H        17.8081854540       10.8147784975        5.5395386490
  H        16.1658767325       10.1527756069        7.1102809536
  H        14.2968285140        8.6104374356        6.3754338787
  H        14.3154623332        7.7654346656        4.0842640351
  C        16.9252903574        7.6373245758       -0.2148271920
  C        17.9099054094        6.8389788181       -0.9544645781
  C        18.9908131383        6.3441474987       -0.2631984666
  C        19.1028797790        6.3897802569        1.1828500347
  C        18.0399383805        6.9119447979        1.9025695799
  C        14.8837892230        8.9127523519       -0.1544247032
  C        15.9247303912        8.3593858625       -0.9112887206
  C        15.9092741070        8.5952819325       -2.4075055051
  C        16.6663550664        9.6955507732       -2.9517950221
  C        16.5520966573       10.0625135801       -4.3220087575
  C        15.7592877907        9.1981788997       -5.1389109055
  C        15.0119212469        8.1277176262       -4.6316045859
  C        15.0952131720        7.7751238460       -3.2181038390
  H        14.4591635490        6.9820580495       -2.8398238017
  H        14.2998129435        7.6327221781       -5.3204755346
  H        15.6493926282        9.4496823029       -6.1697028215
  H        16.9870912733       10.9063471007       -4.7370694124
  H        17.2430301007       10.2930318643       -2.2164029498
  C        13.8761048346        9.7713245315       -0.7927027763
  C        12.8735589393       10.4359101402       -0.1283258939
  H        12.1173898425       10.8271892491       -0.7766964098
  H        13.9497035263        9.8717052592       -1.8679868911
  C        17.8386361691        6.5120970484        3.3870045960
  C        16.8494878765        5.5740468436        3.7598336971
  C        16.8172518204        5.1696256879        5.0561918838
  C        17.6333298844        5.6922706194        6.0387389565
  C        18.6094633889        6.6304760317        5.7245520776
  C        18.7597554361        6.9646316997        4.3362314988
  H        19.4355564886        7.7467489975        3.9642454580
  H        19.2861087716        6.9420771654        6.5147445938
  H        17.6451590913        5.3107114882        7.0738012385
  H        16.2644374821        4.2723094326        5.3663953945
  H        16.1950651525        5.1272678690        3.0151416071
  C        20.1405453678        5.6761277351        1.8776885557
  C        21.1332295176        5.0647872709        1.1135682549
  C        21.0473566867        5.0041701338       -0.2706419154
  C        20.0419142309        5.6126809022       -0.9420381438
  H        20.0444007884        5.4949974208       -2.0241410337
  H        21.8830090927        4.5265585291       -0.7844390977
  H        22.0088267544        4.6981895528        1.6499300678
  H        20.1562286685        5.7699624976        2.9732228880
  C        17.7974555514        6.4467887499       -2.3925478624
  C        16.9635686233        5.3705370434       -2.7624621499
  C        16.9401443663        4.9023696097       -4.0796189292
  C        17.7528617146        5.4873635339       -5.0578676561
  C        18.5474407359        6.5394229751       -4.7341597802
  C        18.5923798091        7.0207151112       -3.4308653594
  H        19.2852630713        7.8623541335       -3.1091002030
  H        19.0726201285        7.0370593663       -5.5113594492
  H        17.7186951658        5.1052716390       -6.0683231846
  H        16.3998343921        4.0114874253       -4.3382956756
  H        16.3600790710        4.8640652257       -2.0082432163
