140

  C         9.4572713437        8.0624782481        1.3495852203
  C         8.3290186273        8.6240585226        2.0545789002
  C         7.1770390755        9.1197776776        1.4066954556
  C         6.1503993902        9.8509729623        2.0751766269
  C         5.0464222894       10.3626488398        1.3741746248
  C         8.3902931501        8.9873638583        3.5345142285
  C         9.1874875667       10.0550338953        3.9107877336
  C         9.0900282889       10.5398286207        5.2083170365
  C         8.2666826982        9.9182755423        6.2125673321
  C         7.4663515484        8.8497830231        5.8519603416
  C         7.5311975249        8.4177209120        4.5300349869
  H         6.1012941119       10.0009297411        3.1084607545
  H         4.3179548658       10.9685071412        1.9106650831
  H         9.9402329872       10.4570580392        3.1821786648
  H         9.7245339410       11.3841841043        5.5160685091
  H         8.3292496077       10.3605761539        7.1504917830
  H         6.7709677453        8.4292956112        6.5614324772
  H         6.8610966632        7.5882989093        4.2844426641
  C         9.4186962977        8.1242906804       -0.1302920358
  C        10.3935864689        7.3719305264       -0.8232645893
  C        11.5091802920        6.8423046615       -0.1506907802
  C        11.4832414317        6.7568237398        1.2648929187
  C        10.3882802962        7.2931945714        2.0249056003
  C         7.1988874727        9.1509024882       -0.0421789925
  C         8.3062214987        8.6693851706       -0.7848743252
  C         8.2917516904        8.9697331574       -2.2645000578
  C         9.0257079029       10.0581792735       -2.6282757532
  C         9.1883910639       10.4248566878       -4.0316021973
  C         8.5177646988        9.6712175771       -4.9787572340
  C         7.7147964615        8.5405535049       -4.6693214178
  C         7.6177334131        8.1827931636       -3.3262775681
  H         7.2069796587        7.3268821380       -2.7947809663
  H         7.3384368272        7.8843348510       -5.4723992657
  H         8.6843613388        9.9249867125       -6.0155637898
  H         9.8844557974       11.2342179202       -4.3225745024
  H         9.5937640983       10.6719329682       -1.9318611865
  C         6.0780295944        9.8225882342       -0.6923482788
  C         4.9955607260       10.3359554026       -0.0368409781
  H         4.1113862340       10.8315052453       -0.5379173052
  H         6.0643635573        9.9201498634       -1.8210090528
  C        10.2265426093        6.8722854914        3.4403834407
  C         9.1777467941        6.0834592532        3.8221296847
  C         9.0292181025        5.6544632396        5.1093309804
  C         9.9559154357        5.8774729545        6.1077473689
  C        11.1205537191        6.6651499589        5.7759450038
  C        11.1934913237        7.2391670256        4.4653552699
  H        12.1341714432        7.7329324119        4.2472434624
  H        11.7273164588        7.0243164447        6.6203473731
  H         9.9308979107        5.3370388883        7.0529470254
  H         8.2114821561        5.0290222461        5.4227802089
  H         8.5336589996        5.6315125093        3.0939708737
  C        12.5989668573        6.0530145777        1.8883990164
  C        13.6132101456        5.4426637575        1.1964947024
  C        13.6028953802        5.5283772934       -0.2379178053
  C        12.6401707327        6.1967177335       -0.8565155515
  H        12.5708336340        6.1730909874       -1.9353845516
  H        14.4611078068        5.0549273874       -0.7232649017
  H        14.4519873097        4.8068050238        1.5343558765
  H        12.6034813882        5.9066504841        2.9787540849
  C        10.2577534671        6.8699414692       -2.2576729239
  C         9.5764797371        5.7107550369       -2.5297839058
  C         9.2797541624        5.3065892050       -3.8640849390
  C         9.8657612357        6.0249671677       -4.9156725060
  C        10.6683044531        7.1559489945       -4.6678696836
  C        10.8697245793        7.5796004522       -3.3465170348
  H        11.5098147029        8.3762856571       -3.2859008030
  H        11.2245064714        7.5135730171       -5.5283628612
  H         9.7753361835        5.7227446361       -5.9214294589
  H         8.6673580225        4.4556920606       -4.1412907237
  H         9.1896051451        5.1869386391       -1.6798306444
  C        16.5156548299        7.7396889737        1.2741509208
  C        15.3631666062        8.3360685369        1.9529431025
  C        14.3729084941        8.9920774032        1.2523975711
  C        13.2000784457        9.6206034486        1.8790568071
  C        12.3299611474       10.4467485225        1.1216849257
  C        15.4401686408        8.7338226972        3.3823375071
  C        16.1587754694        9.8905902816        3.7470671579
  C        16.2332331947       10.4100081055        5.0176593393
  C        15.5165452412        9.8091124802        6.0274976670
  C        14.7813482915        8.6216842369        5.7587062282
  C        14.7872211953        8.0753450332        4.4583014536
  H        13.1092466453        9.6041451426        2.9487873445
  H        11.5036407130       10.9305530749        1.6061832276
  H        16.7129269435       10.3956281104        2.9772056826
  H        16.8091749257       11.3322512049        5.3153274083
  H        15.4838401553       10.2536501368        7.0340416871
  H        14.1674643017        8.2228970763        6.5503966725
  H        14.3393610347        7.0484540852        4.3695163468
  C        16.5984059475        7.8351527605       -0.1937301497
  C        17.5994219206        7.0538402255       -0.8502296627
  C        18.6675578066        6.4352766792       -0.0777496713
  C        18.7078943663        6.5313576447        1.3313450096
  C        17.5430907105        7.0622410522        1.9650251595
  C        14.5120768724        9.1800531444       -0.1978546789
  C        15.5859159209        8.6300032901       -0.8459553703
  C        15.6135532686        8.9018014887       -2.3447447447
  C        16.4009775375        9.9706126101       -2.8447810490
  C        16.5296837603       10.2409708134       -4.2099978553
  C        15.6748074176        9.5383771959       -5.0582557117
  C        14.8087775226        8.5276640468       -4.6170269233
  C        14.8083047309        8.2244214111       -3.2371418964
  H        14.2635661226        7.3103195543       -2.9452543638
  H        14.2552326742        7.9845469401       -5.3856743441
  H        15.7725149244        9.8274125518       -6.1540352794
  H        17.2112751257       11.0539363413       -4.5479907223
  H        16.8441882772       10.6291601616       -2.1281918500
  C        13.3844201551        9.7885444146       -0.8966322504
  C        12.4006553324       10.3985985274       -0.2965422784
  H        11.7070371928       10.9975243094       -0.9324049562
  H        13.4216199463        9.7867748295       -1.9973084751
  C        17.4396858906        6.7158312393        3.4254339990
  C        16.6597259314        5.5900925084        3.8515551734
  C        16.6695531249        5.1884355475        5.1826964264
  C        17.6083146067        5.8131083069        6.0663720432
  C        18.3429857019        6.8856671561        5.6775245744
  C        18.3182982734        7.2866303533        4.3431133229
  H        18.9804514361        8.1329779250        4.1073478077
  H        19.0599813053        7.3390655420        6.3756198866
  H        17.6488704491        5.4215075199        7.0608439193
  H        16.0136978733        4.4424393572        5.6012370233
  H        15.9651586565        5.1311051268        3.1695248185
  C        19.8215238756        6.0050292220        2.0264834372
  C        20.8902376053        5.4405021310        1.3957057289
  C        20.8628007078        5.2129412765       -0.0010581819
  C        19.7821679428        5.7309726976       -0.7162349049
  H        19.8508705673        5.5565736044       -1.8122709347
  H        21.6777946173        4.7735201026       -0.5282386959
  H        21.7540553150        5.0132562210        2.0056811918
  H        19.8192231028        6.0089193713        3.1090984900
  C        17.7006162453        6.7955051913       -2.3755268725
  C        17.0282609257        5.6302693695       -2.8925567403
  C        16.9565975993        5.3582076876       -4.2947016364
  C        17.7780332901        6.1566860909       -5.1099660553
  C        18.5816645725        7.1430900840       -4.5557826074
  C        18.5255109978        7.4989130661       -3.2349401561
  H        19.1526782992        8.2383418808       -2.7481864264
  H        19.2526344957        7.6277990037       -5.2183631198
  H        17.8749858309        5.9053411626       -6.1809064207
  H        16.2265185826        4.6923749689       -4.6699788393
  H        16.6532110356        4.9578347506       -2.1690884707
