140

  C         4.1377831102        0.0862533371       15.3014747275
  C         5.1761622133        0.7554015827       16.0002540751
  C         6.2737722838        1.2497194424       15.2910228157
  C         7.4231791462        1.6929903229       15.9752354467
  C         8.4492724887        2.2228677155       15.2820417382
  C         5.1973430126        0.9270825083       17.4932889858
  C         4.5336307813        2.0945967370       17.9498356464
  C         4.6345304720        2.3938182401       19.2991440095
  C         5.4009025957        1.6796137113       20.2080042680
  C         6.1446698096        0.6037924467       19.7431137638
  C         5.9838367849        0.2321094605       18.3762632053
  H         7.4758470600        1.5270042186       17.0698081335
  H         9.3398167357        2.3725862587       15.9052976291
  H         3.9795098974        2.8054392865       17.2894387981
  H         4.1836711521        3.3172640040       19.6427955500
  H         5.3738941945        1.8915400850       21.2748839950
  H         6.7604541231       -0.0777791391       20.3768442606
  H         6.5589422269       -0.6541015415       18.0635167662
  C         4.0689961485        0.1521023532       13.8407341209
  C         3.1207056119       -0.7300826505       13.1529222640
  C         2.1191565659       -1.3873204348       13.8131485611
  C         2.0599945253       -1.2914945669       15.2640341584
  C         3.0739077086       -0.6665581317       15.9815632831
  C         6.2059572287        1.3378461659       13.8724161346
  C         5.0450613351        0.9638981808       13.1539196326
  C         5.0541741260        1.2568924070       11.6383494846
  C         4.1045660528        2.1764630987       11.1289412817
  C         4.0657358589        2.4810457764        9.7654305991
  C         4.9783194771        1.9114862767        8.8980121724
  C         5.9481357879        1.0269019768        9.3968349179
  C         5.9124847974        0.6116904635       10.7267474392
  H         6.5479137863       -0.1763899240       11.0918285769
  H         6.5988229827        0.4913299277        8.7507267499
  H         4.9129789554        2.2017608585        7.8625433963
  H         3.1705791774        3.0427624121        9.3996601958
  H         3.4411059439        2.6006263606       11.8404434932
  C         7.2971050197        1.9900155038       13.1921385342
  C         8.4175208085        2.4794355360       13.8563501609
  H         9.2620145344        2.9449691721       13.3747641795
  H         7.2647850826        1.9748742212       12.1257048774
  C         3.0920196418       -1.0105322788       17.4922451693
  C         3.8496776212       -2.0806336069       17.9674201137
  C         3.7850388761       -2.4186193375       19.3349908557
  C         2.9840038365       -1.6723593273       20.2262514799
  C         2.3221477854       -0.5683733505       19.7511711372
  C         2.2761715291       -0.2727381040       18.3599384298
  H         1.6150122164        0.5613749516       17.9733165815
  H         1.6821722566       -0.0206923924       20.4311110333
  H         3.0310197447       -1.9100101127       21.3376890907
  H         4.5576586513       -3.1050425855       19.7142634399
  H         4.4829214544       -2.6663048794       17.3056448175
  C         0.8659662215       -1.9040358512       15.8790633107
  C        -0.0664302616       -2.5854500473       15.1366176944
  C         0.0617040735       -2.7134111973       13.7168855675
  C         1.1070664778       -2.1702531276       13.1341665479
  H         1.3319760581       -2.2798274373       12.0030393975
  H        -0.6788209124       -3.3816111382       13.2745652137
  H        -0.9013265254       -3.0274795591       15.6465195906
  H         0.7584871228       -1.8093866854       16.9595656610
  C         3.3301121744       -1.0714638458       11.7037442929
  C         4.3177218767       -1.9411522437       11.2266900621
  C         4.3973624958       -2.3340611544        9.8657403985
  C         3.4446395764       -1.8109862364        8.9243634418
  C         2.5510440493       -0.8950203149        9.3378499254
  C         2.4745549470       -0.5072521598       10.7175891869
  H         1.6884337228        0.1863311571       11.0630946141
  H         1.8856565047       -0.4012527676        8.6795985457
  H         3.6055765229       -1.9477690226        7.8507556526
  H         5.2777056960       -2.8892898651        9.5405253348
  H         5.1926598645       -2.2205544955       11.8427988749
  C        11.3085654616        0.2639283770       15.2724364331
  C        12.3815965026        0.8483698569       15.9561063800
  C        13.4328320770        1.3749033302       15.1684915642
  C        14.6429360933        1.9342089845       15.7346906636
  C        15.6401757520        2.4620236773       14.9836015664
  C        12.3809993479        1.0766629472       17.4091124562
  C        11.6441107467        2.1515875239       17.9181156466
  C        11.6704095488        2.3862312209       19.3109078810
  C        12.4867686908        1.6215412807       20.1099730909
  C        13.3140666282        0.6377137952       19.5795475882
  C        13.2907371901        0.3390050964       18.2195200347
  H        14.8606747976        1.7761795708       16.8225928575
  H        16.5577536425        2.7660546535       15.4767469279
  H        11.0381680659        2.6786504605       17.1885734674
  H        11.0498974428        3.2021566393       19.7367084224
  H        12.3930265925        1.8273264489       21.2164054534
  H        14.0271360815        0.1022116894       20.2228588799
  H        13.7749490092       -0.4988643321       17.7441123898
  C        11.2395396752        0.1629516621       13.7947626433
  C        10.2200332504       -0.6627555790       13.1907658551
  C         9.1096383485       -1.1475422706       13.9101131146
  C         9.1924237400       -1.1482462047       15.4175738999
  C        10.3531684018       -0.5903235431       16.0409608287
  C        13.3709109191        1.3574403798       13.6819327152
  C        12.2785903151        0.7896862996       13.0609347772
  C        12.3039851421        1.0547902922       11.6045581654
  C        11.6030171517        2.1952650535       11.1722687822
  C        11.7193548779        2.6563267827        9.8639655972
  C        12.5510690618        1.9837003328        8.9882994301
  C        13.2692290259        0.8879311975        9.4113772857
  C        13.1705526949        0.4524477264       10.7040072939
  H        13.6113973953       -0.5197880132       10.9869038522
  H        13.8929608784        0.3064374265        8.7000586989
  H        12.5268818584        2.3031650660        7.9400004376
  H        11.1057199057        3.5627327514        9.5753678828
  H        11.0516443956        2.8064102486       11.9288590036
  C        14.4255403682        2.0768643510       12.9424163767
  C        15.5108864854        2.5873244492       13.5927678906
  H        16.2948113881        3.0449177752       13.0028895132
  H        14.4580494648        2.0356911293       11.8924484687
  C        10.4324787336       -0.9080453614       17.5070166446
  C        11.0340289475       -2.1129744070       17.9124850200
  C        11.0290896423       -2.6071897380       19.2309531938
  C        10.3295361724       -1.9167115156       20.2568605483
  C         9.5955126400       -0.8057699042       19.8953342713
  C         9.6443530255       -0.3103644648       18.5451442275
  H         9.0700674886        0.5889870738       18.4040722335
  H         8.8607952759       -0.3798446472       20.6159666816
  H        10.2469978275       -2.3051991910       21.2572040478
  H        11.6074121879       -3.5221432353       19.3568528824
  H        11.6856640882       -2.5482034051       17.1272068174
  C         8.1749002923       -1.8893376152       16.1081613836
  C         7.1148458108       -2.4053281887       15.4195074266
  C         7.0451697372       -2.3648651173       13.9336694024
  C         8.0946699337       -1.7929383229       13.2559053802
  H         8.2310425366       -1.7311540993       12.1790295116
  H         6.2302753715       -2.8113407615       13.3572376278
  H         6.3372543038       -2.9681006962       15.9518382254
  H         8.2177618572       -1.9168171409       17.2010203299
  C        10.3351479612       -1.0538047263       11.7429985507
  C        10.9627119681       -2.2791063695       11.3979088466
  C        11.0869300244       -2.7025206625       10.1239570689
  C        10.4817674908       -2.0031294318        9.0649984076
  C         9.8468124582       -0.7708932030        9.3469350733
  C         9.6711624676       -0.3437539292       10.7567929262
  H         9.1200051842        0.5347641569       11.0990851859
  H         9.5164878251       -0.2202162541        8.4519072559
  H        10.5118552180       -2.3614129652        8.0428951047
  H        11.7489080126       -3.5535329251        9.8855431347
  H        11.4146961155       -2.8340220813       12.2165318431
