140

  C         8.1312557945        8.5642862639        1.4637996263
  C         7.1046827451        9.3327459801        2.1793360257
  C         5.9888171572        9.8496355899        1.4964056586
  C         4.9214062691       10.5280483907        2.1872714477
  C         3.8002688524       10.8878377631        1.4951479955
  C         7.2038579614        9.6319236443        3.6044448811
  C         8.1684152507       10.5477152058        4.0536129931
  C         8.1874327137       10.9258056581        5.4086945297
  C         7.1512177956       10.4051321319        6.2771448164
  C         6.1925063779        9.4689659537        5.8211211228
  C         6.2638971305        9.1026811185        4.4913148645
  H         4.9791466913       10.6502394755        3.2601709324
  H         2.9958102208       11.3447691649        1.9600600065
  H         8.8717046199       10.9555723380        3.3479841877
  H         8.7929977717       11.6594875566        5.8319170389
  H         7.1063738250       10.6440005908        7.2943698031
  H         5.5329775862        9.0822390590        6.5977585671
  H         5.6933640807        8.2712327187        4.1260298206
  C         8.1047601588        8.4951313816        0.0202609103
  C         9.1205536179        7.7125951603       -0.6845485923
  C        10.2262240249        7.1492057024        0.0234963709
  C        10.2628347350        7.2389943508        1.5055487492
  C         9.1729880845        7.8161538918        2.2078294227
  C         5.9536453038        9.7914436943        0.0563022725
  C         7.0842747233        9.2681922244       -0.6326836476
  C         7.1828846607        9.5513052311       -2.1318724700
  C         8.0954699544       10.5264971281       -2.5404943160
  C         8.4483083550       10.7267068895       -3.9280855210
  C         7.5722145226       10.1592271291       -4.8685617376
  C         6.5612393410        9.2385986512       -4.4004928497
  C         6.3941280740        8.8706442874       -3.0831429548
  H         5.7035390284        8.1070906902       -2.7160836113
  H         5.9605725105        8.6678469955       -5.0665570090
  H         7.7297401629       10.2911923924       -5.9720137744
  H         9.1513556023       11.4878963731       -4.1830554149
  H         8.7160989072       10.9636329330       -1.7540503185
  C         4.7930432387       10.2364113232       -0.6000776829
  C         3.6909754006       10.6479920721        0.1051122866
  H         2.7330991312       10.8368200154       -0.3890340175
  H         4.7689625060       10.0257628774       -1.6732565314
  C         9.1714339009        7.5015917394        3.7075806762
  C         8.1938475930        6.5569118331        4.1236720305
  C         8.3294522121        5.9250548216        5.3731297458
  C         9.3465564093        6.3193202108        6.3122479131
  C        10.1888592581        7.3874167096        5.9192453512
  C        10.0746106395        7.9580340065        4.6744974466
  H        10.6471613009        8.8841510808        4.4609460046
  H        10.9160996549        7.5856654250        6.6722890888
  H         9.5094709051        5.7262989847        7.2103926551
  H         7.5647260938        5.1369849785        5.4205282359
  H         7.3958398366        6.2657780205        3.4530347832
  C        11.4102838929        6.6575999953        2.1948550562
  C        12.4493683349        6.0861974765        1.4907143842
  C        12.3997262493        6.0132899194        0.0494474000
  C        11.2666432869        6.4451019035       -0.6286169657
  H        11.2205309009        6.2940202133       -1.6856603186
  H        13.1108417337        5.3415377557       -0.4790464724
  H        13.3172714789        5.7553112514        1.9957962581
  H        11.4209520343        6.7196615746        3.2555755085
  C         8.9984213047        7.4085855389       -2.1736569530
  C         8.0997166043        6.3699409453       -2.5474508325
  C         8.1074821325        5.8744893801       -3.8481594992
  C         9.0108556770        6.3720779060       -4.8353466772
  C         9.9718656679        7.3275908748       -4.4931666334
  C         9.9847974484        7.8747121950       -3.1784381947
  H        10.7036233964        8.6500422752       -2.9001994595
  H        10.6868980631        7.6315247575       -5.2382596492
  H         9.0027893878        5.9310729608       -5.8185513423
  H         7.4356907413        5.0397738497       -3.9961557332
  H         7.4164006294        6.0016440417       -1.7019652315
  C        15.3710058187        8.2871111247        1.4476290168
  C        14.3679838612        9.0513692101        2.2062113405
  C        13.2700851907        9.5321492589        1.5217897398
  C        12.1343405505       10.1733825537        2.1338250752
  C        11.1020839822       10.6224732709        1.4266003326
  C        14.4734885348        9.4640143711        3.6654163169
  C        15.3677350996       10.4197931239        4.1405005309
  C        15.4205177603       10.6995485733        5.5136614235
  C        14.6162612465       10.0489901154        6.4557245520
  C        13.7182393486        9.0653042758        5.9609046049
  C        13.6974360347        8.7954528468        4.6039773211
  H        12.0960308887       10.1591201488        3.2368189205
  H        10.3216917605       11.2474699937        1.8888183688
  H        16.0003198911       11.0289079996        3.4725728627
  H        16.0398875187       11.5014322289        5.9138489448
  H        14.7316070448       10.1932989212        7.5381126095
  H        13.1308845286        8.4767285556        6.6006103129
  H        13.0151611193        8.0349196312        4.2395402007
  C        15.3747231857        8.2390965518        0.0039120723
  C        16.4779053959        7.5748017947       -0.7332192143
  C        17.6264286914        7.1797603343        0.0506203222
  C        17.4903352009        7.0817086671        1.4870853667
  C        16.3709837398        7.5941536042        2.1227998715
  C        13.2147851850        9.4396317084        0.0545256107
  C        14.3002567183        8.8831403092       -0.6770421713
  C        14.4183474627        9.0887227163       -2.1125975906
  C        15.4054402306       10.0384599281       -2.5112826772
  C        15.3878183936       10.5180683815       -3.8522144864
  C        14.4345481392       10.0404748321       -4.7886942516
  C        13.6179936675        9.0167131731       -4.4427793472
  C        13.5711619609        8.5680178925       -3.1090522421
  H        12.9498948969        7.6950552259       -2.9190615475
  H        12.9817807073        8.6096679070       -5.1540603377
  H        14.4387370711       10.2513630127       -5.9219237332
  H        16.1499003652       11.2395729352       -4.1356689767
  H        16.0649719768       10.5413320916       -1.8222485357
  C        12.1295751917       10.0405558655       -0.6385592991
  C        11.0838951047       10.6449546740        0.0133698272
  H        10.2233451082       11.0854351186       -0.4557468175
  H        12.1662424356       10.1189805581       -1.7265862380
  C        16.3097645303        7.1089729813        3.5527277378
  C        15.4366562932        6.0725657203        3.8844085860
  C        15.2199876248        5.6293699092        5.2100822026
  C        16.0163632632        6.1301951598        6.2249671527
  C        16.8834509711        7.2073426444        5.9014436665
  C        16.9692186662        7.7067143484        4.5944430335
  H        17.6677874064        8.5262732244        4.3489882392
  H        17.5280057700        7.6947623969        6.5654745920
  H        15.9345267315        5.7941970452        7.2186599595
  H        14.4664687281        4.8816248276        5.4223042488
  H        14.8968521187        5.5244064520        3.1271402682
  C        18.5930403939        6.4572696480        2.1884501853
  C        19.6792963983        5.8947628620        1.5717331751
  C        19.8045997300        5.9917146212        0.1509405477
  C        18.7889903937        6.6447743249       -0.5905971114
  H        18.8310683828        6.7390498564       -1.6493481507
  H        20.7079578539        5.5913524014       -0.4210348499
  H        20.2945851578        5.2332584134        2.1686736018
  H        18.5279670652        6.3728137860        3.2521010836
  C        16.4939963079        7.1518257413       -2.1898457333
  C        15.8284473905        6.0249584628       -2.6283716130
  C        15.7004037473        5.6338884009       -3.9515574693
  C        16.3641726361        6.4034061730       -4.9284478195
  C        17.1017521904        7.5867081992       -4.5827483564
  C        17.1976822082        7.8956114217       -3.2292148395
  H        17.8147682712        8.7318320726       -2.9542509099
  H        17.6033097020        8.2190835714       -5.2945351520
  H        16.4017487355        6.1072889879       -5.9224262802
  H        15.2192930174        4.6674926004       -4.1585005749
  H        15.2036838817        5.5095580764       -1.8453790334
