140

  C        10.9356620103        7.4817201083        0.8655531584
  C         9.7624147352        8.0396796490        1.5121299402
  C         8.7066318736        8.6666006184        0.7764966053
  C         7.6018148365        9.3572233435        1.3419614014
  C         6.4974145167        9.7123860440        0.5289038698
  C         9.7056026763        8.3885930464        2.9331935933
  C        10.4183804204        9.5781107752        3.2161605114
  C        10.3604081637       10.2236623284        4.4761704471
  C         9.6106990394        9.6282584723        5.4982975146
  C         8.9170368550        8.3958034477        5.2271442335
  C         8.9976752853        7.7872726310        4.0058474697
  H         7.4451629154        9.4321886729        2.4325154237
  H         5.6466896868        9.9666702364        1.1507894825
  H        10.7530247039       10.1422968172        2.2723705190
  H        10.8639017156       11.2240356161        4.7284803579
  H         9.5847487130        9.9831452340        6.5589425215
  H         8.1971396916        7.9758653270        5.9260344423
  H         8.4263618974        6.8420645966        3.7823125996
  C        10.9292435798        7.4366159432       -0.5435499525
  C        12.0054100789        6.8063326937       -1.2162160137
  C        13.0244460863        6.1061831612       -0.4364891707
  C        12.9479018820        5.9974772892        0.9864753609
  C        11.9012060675        6.6822700446        1.6366913182
  C         8.7310408022        8.5312470299       -0.6375160624
  C         9.8372275090        7.9169346766       -1.3007874467
  C         9.8484799211        8.0901510406       -2.7787066470
  C        10.7704457935        9.0645032525       -3.3191820144
  C        10.7578550605        9.4184066400       -4.7175441033
  C         9.7295913373        8.9849701534       -5.5282729564
  C         8.7731308294        8.0789775859       -5.0126847390
  C         8.8175988818        7.6434824961       -3.7007771803
  H         8.0564506686        6.9602308850       -3.2762510267
  H         7.9168459010        7.7384160350       -5.6347970513
  H         9.5778270057        9.4247564315       -6.5440637102
  H        11.4889506695       10.0715459538       -5.1108752873
  H        11.5124901058        9.5523707374       -2.6771356485
  C         7.6932831847        9.0544854474       -1.4109826055
  C         6.5413362147        9.5663922530       -0.9182654248
  H         5.7546100039        9.9398751520       -1.5760121654
  H         7.9739465269        8.8933917934       -2.4678391315
  C        11.7040804439        6.4268741781        3.1234294280
  C        11.1942949000        5.1187705230        3.4472142033
  C        11.2258191347        4.6109808613        4.8000210837
  C        11.8395888835        5.3919559596        5.8100267044
  C        12.4365391617        6.6343525225        5.4758586805
  C        12.3960158196        7.1127183160        4.1420365474
  H        12.8423824505        8.0549867012        3.9109312374
  H        12.9718104047        7.2514974544        6.2255753259
  H        11.7261831042        5.0567980723        6.8234801435
  H        10.7326943125        3.6483084329        4.9473934072
  H        10.7437370127        4.5994758774        2.5951620959
  C        13.8441269364        5.2315011601        1.7124607876
  C        14.7442093143        4.4550418047        1.0733503112
  C        14.8409682164        4.4466622939       -0.3699244205
  C        14.0630416908        5.3167060629       -1.1242400440
  H        14.1564579488        5.4090944317       -2.2256588254
  H        15.7154628772        3.8679549273       -0.7762242287
  H        15.4258066712        3.8007625903        1.5741229949
  H        13.8694123372        5.1855894730        2.8086706703
  C        11.8917754912        6.3157601466       -2.6179102046
  C        11.0546720668        5.2104931402       -2.8543376191
  C        11.1151039865        4.5413022486       -4.0586940218
  C        12.0451188280        4.9235737527       -5.0705283691
  C        12.8262752446        6.0670732584       -4.8880650254
  C        12.7989321049        6.7117115169       -3.6018416699
  H        13.4628187609        7.6169392224       -3.4909024609
  H        13.4542462670        6.4364975368       -5.7018259029
  H        12.1394132170        4.4625418106       -6.0537134678
  H        10.4350786730        3.7404091867       -4.3068181720
  H        10.3372343361        4.9272280555       -2.0530229508
  C        18.0051694054        7.3544167557        0.8500279780
  C        16.9761773442        8.1118932847        1.4557608493
  C        15.8700169698        8.5387878769        0.6500898666
  C        14.7294576348        9.3088364941        1.1982296116
  C        13.6953987601        9.8309825043        0.4031622367
  C        16.9697366633        8.4115256682        2.9667160989
  C        17.9472651615        9.3177948371        3.4415325953
  C        18.0382605117        9.7454135441        4.8423787780
  C        17.0691019119        9.2934988825        5.7111114720
  C        16.1257965626        8.3497140295        5.2947900210
  C        16.1192771189        7.8921809819        3.9718464177
  H        14.7379824002        9.3138861889        2.3061132209
  H        12.9050466800       10.4717051855        0.7882562600
  H        18.6220872907        9.7224576892        2.7069162594
  H        18.8109459654       10.4298715297        5.1708799019
  H        17.0706740373        9.6530474791        6.7463821521
  H        15.4842971663        7.8434472064        6.0216181586
  H        15.3616405636        7.1786188387        3.6936394947
  C        18.0381778910        7.2958753720       -0.6626305298
  C        19.1407056503        6.5771625927       -1.3266720423
  C        20.1496010281        6.0844400170       -0.4619261354
  C        20.1414767788        6.2408958558        1.0180218400
  C        19.0149535712        6.7347392795        1.6354967099
  C        15.8844326504        8.3834844017       -0.7595017925
  C        17.0155300976        7.8457380196       -1.3663827206
  C        17.0958261248        8.1665630307       -2.7864758508
  C        17.7167459649        9.3421955707       -3.1841355401
  C        17.6792547299        9.6947817403       -4.5586197634
  C        16.9163121164        8.9361333298       -5.4418705345
  C        16.1217006376        7.8560091307       -4.9588833030
  C        16.3091663544        7.4255946399       -3.6662931579
  H        15.6864039090        6.5072448000       -3.4499689680
  H        15.4290848091        7.3677303557       -5.6638901130
  H        16.8377298037        9.2713819798       -6.5002127921
  H        18.2088336350       10.6162062763       -4.8908742074
  H        18.2618768365        9.8129293603       -2.3578211304
  C        14.8121727286        8.9066457226       -1.5829942851
  C        13.7605355404        9.6322519574       -1.0591268659
  H        13.0197175637       10.1678574922       -1.6179194845
  H        14.7663834535        8.7183540136       -2.6609736999
  C        18.8033577371        6.3172526827        3.0963034026
  C        17.9421683768        5.2384448908        3.2501102207
  C        17.7200980119        4.6307767745        4.5123765409
  C        18.4546334839        5.0702805390        5.6007983480
  C        19.3324462566        6.1504813121        5.4605035143
  C        19.5494529116        6.6943694277        4.2086035333
  H        20.2605248447        7.5193848814        4.0246053880
  H        19.9014946252        6.5176371350        6.3247451210
  H        18.4644154282        4.4509273135        6.4953874354
  H        16.9738893330        3.8690284246        4.5420180419
  H        17.5640608995        4.7972029376        2.3485483553
  C        21.2170918374        5.6510865195        1.7434565062
  C        22.2078216301        4.9180804330        1.2170141631
  C        22.2116764649        4.6723585214       -0.1971356616
  C        21.2115364673        5.2500884048       -0.9484809512
  H        21.2384930688        5.1090248918       -2.0300503483
  H        23.0469382356        4.0578033423       -0.6042978343
  H        22.8529719779        4.3443600306        1.8603231229
  H        21.2008841282        5.7825680329        2.8381600818
  C        18.9789708559        6.0760684818       -2.7317413596
  C        18.0732583384        5.0410401936       -3.0414644660
  C        17.9637266460        4.4641252932       -4.2762586284
  C        18.6911880448        5.0209096330       -5.4207558757
  C        19.5572999865        6.0770939577       -5.1334650367
  C        19.6857157805        6.5914978736       -3.8277827345
  H        20.4718227022        7.3684858157       -3.6740771832
  H        20.0706181825        6.4541721849       -6.0066194249
  H        18.6137304691        4.6318950031       -6.4534991076
  H        17.1531979416        3.7478910701       -4.4410398770
  H        17.4121974761        4.5992614134       -2.2638923227
