140

  C         5.1475150570       -1.3644796183       13.7819318781
  C         6.2405029842       -0.6589607064       14.3811608074
  C         7.3749942972       -0.2151492801       13.6653482169
  C         8.4940777273        0.4044115183       14.2849691512
  C         9.4255807554        1.1474409750       13.6282504762
  C         6.0870302310       -0.3086780406       15.8155245462
  C         5.3765869521        0.9091317694       16.2165225474
  C         5.3024276230        1.3848698962       17.5264781804
  C         5.9361003263        0.7373159240       18.5816768046
  C         6.8327696604       -0.2783149008       18.1733752293
  C         6.9399607105       -0.7819635350       16.8285031075
  H         8.6384725426        0.3514381914       15.3670553708
  H        10.1328952375        1.6928261695       14.2103360643
  H         4.7918300427        1.3548354808       15.3177534104
  H         4.6751356641        2.2505520205       17.7677776775
  H         5.9164127180        1.0245536956       19.6417863140
  H         7.4585307158       -0.6033804774       18.9669618607
  H         7.5417690487       -1.6124777734       16.5085257089
  C         5.1576620771       -1.4456247308       12.2904459866
  C         4.0799551460       -2.1223498413       11.5997651424
  C         2.9476296238       -2.6091687453       12.2894914452
  C         3.0308516810       -2.5691318360       13.7585572704
  C         4.1174685871       -2.0294508300       14.4927416976
  C         7.3043993338       -0.1309553295       12.1842956212
  C         6.1852239750       -0.7813569713       11.5228052250
  C         6.1263084707       -0.3958724630       10.0199464071
  C         5.4821951001        0.7899401290        9.5306906432
  C         5.4567398553        1.0544986763        8.1209739808
  C         6.2038515146        0.2723204598        7.1999471480
  C         7.0206129918       -0.7291982148        7.7667276022
  C         6.9117488361       -1.0692810378        9.1041180130
  H         7.5245290289       -1.8400777467        9.5400186958
  H         7.7575822829       -1.2068329173        7.1025192116
  H         6.2941424997        0.5736591428        6.1501622823
  H         4.9207291124        2.0040535284        7.8105577351
  H         4.8248499944        1.3516668680       10.2244983169
  C         8.2783063062        0.7214843336       11.5883273170
  C         9.3701522915        1.2469268683       12.2557618839
  H        10.0639468191        1.8451310752       11.6518770756
  H         8.2137206598        0.8123155389       10.4788138272
  C         4.2007582833       -2.3118901134       15.9615002117
  C         4.8281011702       -3.4131904878       16.4855097847
  C         4.5872302900       -3.8789614479       17.8062176357
  C         3.7523608609       -3.1558224967       18.6601971223
  C         3.0791563549       -1.9897753777       18.1321770353
  C         3.3743361555       -1.5763057586       16.8429326490
  H         2.8893147955       -0.7237727254       16.5086260795
  H         2.4314977381       -1.3402434270       18.6374866873
  H         3.4607038166       -3.5022456204       19.6622316708
  H         5.0165515593       -4.8559235565       18.1068928610
  H         5.2630827769       -4.0707424937       15.7598299921
  C         1.9954014235       -3.3059633342       14.4561942183
  C         1.0030525461       -4.0199690400       13.7687789279
  C         0.9793258966       -4.0281822849       12.3559157583
  C         1.9211842059       -3.3546654679       11.6244588643
  H         2.0447067634       -3.4971402353       10.5524563899
  H         0.3063156956       -4.6181277850       11.8449785091
  H         0.3463447830       -4.6037243944       14.3761427716
  H         1.9560759170       -3.3341882234       15.5631344553
  C         4.1985244309       -2.3516883436       10.1505311306
  C         5.1111245595       -3.2995365715        9.7165084099
  C         5.0703309409       -3.8108964303        8.3705692940
  C         4.1055116394       -3.3263311860        7.4900180986
  C         3.1726097367       -2.3435521689        7.9303602792
  C         3.2012009691       -1.9190374645        9.2538375264
  H         2.4427439239       -1.2164569075        9.5717585948
  H         2.2700890386       -1.9993261448        7.3768680296
  H         4.1217440969       -3.7606172070        6.4432072990
  H         5.7972559793       -4.5884485436        8.0650302807
  H         5.8399437263       -3.7409760854       10.4338594292
  C        12.3651327943       -1.4816731301       13.8789630395
  C        13.3557404082       -0.8142008035       14.6395040246
  C        14.4109515395       -0.1449243729       13.9454988915
  C        15.4940426769        0.4699223229       14.6072231895
  C        16.5804934428        0.9675736577       14.0096204471
  C        13.3750006688       -0.6458240854       16.1260985328
  C        12.6886013433        0.4856290934       16.6172581567
  C        12.6517107729        0.8518042240       17.9819875982
  C        13.3025646309        0.0513038012       18.8774225346
  C        14.0102633984       -1.0833543594       18.4105096621
  C        13.9901671853       -1.4791294055       17.0832035788
  H        15.3909128141        0.6182430955       15.6682083224
  H        17.3495840897        1.5734894414       14.5204363681
  H        12.3457992021        1.1760540455       15.8845973652
  H        12.1275788396        1.7939658893       18.2570062275
  H        13.3214854436        0.2003827328       19.9584517051
  H        14.6189681128       -1.7049559868       19.0554897667
  H        14.5435552093       -2.3277709020       16.7469828457
  C        12.3503156132       -1.3839384203       12.4167578994
  C        11.3241440985       -2.0694659059       11.6278616377
  C        10.2715869647       -2.7117995246       12.2940363971
  C        10.2620605010       -2.7700160764       13.7645412147
  C        11.2877289692       -2.2239348310       14.5264318936
  C        14.4522158788       -0.1257299953       12.5000665607
  C        13.3564635464       -0.6244540571       11.7143100234
  C        13.2713618243       -0.2710966891       10.2634736674
  C        12.3218436420        0.6002827530        9.7244176081
  C        12.3822137471        1.0177034340        8.4084249360
  C        13.5404866206        0.7535481867        7.6354605358
  C        14.4904502056       -0.0763379773        8.1389853331
  C        14.3099047041       -0.5913005072        9.4191223115
  H        15.1321053212       -1.2034065767        9.8588579051
  H        15.4255072785       -0.3907752783        7.5650652666
  H        13.5175980578        1.1434263039        6.6377293920
  H        11.5822165781        1.6578451669        8.0632615926
  H        11.4324276513        0.8581880816       10.3335229138
  C        15.5858310218        0.5321176253       11.8585755027
  C        16.6522731829        0.9796007242       12.5510516937
  H        17.3785393863        1.6050840180       12.0813869700
  H        15.4758674372        0.7037731184       10.7981986776
  C        11.3081274514       -2.5611941122       15.9794213995
  C        11.9344476672       -3.7171408257       16.4679274513
  C        11.8227973854       -4.1171206635       17.8180940703
  C        11.0174083834       -3.3511164361       18.6625231227
  C        10.2363427573       -2.3178893509       18.1137293903
  C        10.3788180972       -1.8973448350       16.7865615265
  H         9.8187499994       -1.1440122362       16.3547549815
  H         9.3897795712       -1.8990402646       18.7729169319
  H        10.9609821093       -3.6540846878       19.7167142275
  H        12.4366342447       -4.9205732050       18.1683448988
  H        12.4862670839       -4.3384751596       15.7657318003
  C         9.1011323730       -3.4369392309       14.4202032439
  C         8.1289132908       -4.0918977947       13.6893560102
  C         8.2134716685       -4.1248361175       12.2708824278
  C         9.2922629850       -3.4752514231       11.6423255490
  H         9.2874131533       -3.4764968749       10.5519073340
  H         7.4366178708       -4.7051117355       11.7175847350
  H         7.2932759209       -4.5423746164       14.1208607047
  H         9.1632176203       -3.6645483050       15.4940973725
  C        11.4587381558       -2.3804270702       10.1444862448
  C        12.5740596757       -3.0933062174        9.4943907110
  C        12.3872363566       -3.3884699050        8.1037701414
  C        11.3287408288       -2.9511842733        7.3338600335
  C        10.3978968647       -2.1282526748        7.9493685995
  C        10.4285484683       -1.9114218625        9.2790340466
  H         9.7324718669       -1.1588385384        9.6840279436
  H         9.6877525399       -1.5969226543        7.2914657935
  H        11.3844093359       -3.1387749593        6.2639653432
  H        13.1508667134       -3.9579702638        7.5464302118
  H        13.3715107824       -3.5784663180       10.0741071382
