140

  C        12.1458844148        7.1285259127        2.3987287325
  C        11.1448172871        7.8218802529        3.0855738101
  C         9.9684121074        8.3531438822        2.4381004618
  C         8.9754662242        9.1593517631        3.0888060056
  C         7.9685270209        9.7946986295        2.3769018138
  C        11.1952041793        8.1308525334        4.5160224807
  C        11.8903577336        9.2323038182        4.9977777486
  C        11.7682715160        9.7132856145        6.3473898438
  C        10.9096897353        9.0402152559        7.2254240353
  C        10.3241514447        7.8910685407        6.7926793614
  C        10.3913791242        7.5063762509        5.4605594956
  H         9.0096169537        9.0483037819        4.1713613473
  H         7.2345288828       10.4718098645        2.8732699531
  H        12.4993591100        9.8693372516        4.2879813502
  H        12.2120801099       10.6417881971        6.6702703730
  H        10.7844934382        9.4933123155        8.1432713454
  H         9.6096683261        7.3060541948        7.3072681883
  H         9.8852697403        6.5997191491        5.0431888615
  C        12.0733995875        7.0293650828        0.9807875181
  C        13.0734091375        6.2942187386        0.1954079739
  C        14.1346829985        5.6610591651        0.9188457616
  C        14.2988425366        5.7788140388        2.3710234516
  C        13.2088751847        6.3756974769        3.0470118941
  C         9.8991136998        8.2579406259        1.0037415052
  C        10.9987787068        7.7378322289        0.3120142516
  C        11.1972781600        8.1325801394       -1.1551413536
  C        12.1111738178        9.1248906482       -1.5239597692
  C        12.2470586301        9.5666002763       -2.8403345558
  C        11.4597054088        8.9786670080       -3.8022355701
  C        10.5152546101        8.0739512546       -3.4953963712
  C        10.3291731297        7.6043586204       -2.1580289822
  H         9.8146361355        6.7092959049       -1.8112318173
  H         9.9995216162        7.6098694910       -4.3362460242
  H        11.5479269740        9.2578713202       -4.8400717362
  H        13.0847943824       10.2110103815       -3.0823220678
  H        12.7815194863        9.5371488810       -0.8193506344
  C         8.7916916421        8.8439845958        0.3299767258
  C         7.8290786571        9.6491559206        0.9664532780
  H         7.0257857465       10.1876458858        0.4445103154
  H         8.7097506931        8.8081083421       -0.7286762637
  C        13.2677091508        6.1764222352        4.4984953633
  C        12.4974315607        5.1459949634        5.0746446155
  C        12.6512427041        4.8824807537        6.4449123446
  C        13.5328890571        5.6311596530        7.2703629700
  C        14.2749720607        6.6865550343        6.6791311774
  C        14.2114386035        6.9266304173        5.2758501559
  H        14.8618234314        7.6287767044        4.8454839616
  H        14.8494315706        7.3256808395        7.3004381297
  H        13.7095824541        5.3261977003        8.3131135766
  H        12.0829031769        3.9982298803        6.8372257592
  H        11.8624614692        4.5555775006        4.4326237820
  C        15.4362186865        5.2464053990        3.0261653904
  C        16.4642446485        4.6487166684        2.2837699056
  C        16.2394117609        4.2907111779        0.8948767421
  C        15.1387193759        4.8334372409        0.2557169261
  H        14.9818311467        4.4501804479       -0.7227533603
  H        17.0449443244        3.7265506625        0.3819937588
  H        17.3013498067        4.2068228616        2.8190500504
  H        15.6706527109        5.5190523300        4.0721327825
  C        12.9993452625        5.9357760452       -1.2562088709
  C        12.2238862576        4.8624699243       -1.6086869385
  C        12.4119318574        4.2242668486       -2.8538424764
  C        13.3468029389        4.6688782804       -3.7525104984
  C        14.1391359714        5.8077399251       -3.4214786252
  C        13.8724304778        6.4512135877       -2.2066824285
  H        14.4042088215        7.2965669713       -1.9451650832
  H        14.8643215860        6.1831728500       -4.1597747876
  H        13.4785895900        4.2411921528       -4.7608926576
  H        11.8855313621        3.3033229225       -3.0252452865
  H        11.5007064482        4.4609336664       -0.8930039175
  C        19.4143574036        6.9195574864        2.2788996000
  C        18.3989051273        7.6576739560        2.9751691840
  C        17.2806099456        8.0927539600        2.2314150914
  C        16.2771877976        8.8626606341        2.9092745350
  C        15.2789536972        9.5009398428        2.2792379265
  C        18.4669827956        8.1188788062        4.3580068371
  C        19.1175577935        9.3147284628        4.7292515400
  C        19.0749789548        9.7934472417        6.0880556868
  C        18.4359839314        8.9607547452        7.0468593539
  C        17.7530818489        7.7779475946        6.6603081738
  C        17.8159797904        7.3544763612        5.3053668328
  H        16.3238082418        8.8810331942        3.9860496296
  H        14.6539372450       10.1116059574        2.8830803495
  H        19.7417682779        9.8937527760        4.0617980568
  H        19.5985608555       10.6882903025        6.4409037675
  H        18.3772021304        9.1989160844        8.1231296577
  H        17.3062059326        7.0914176471        7.3712231050
  H        17.2392341181        6.5302046610        4.9590224187
  C        19.4341104253        6.9249546891        0.7755809212
  C        20.5289189900        6.2631960059        0.1580427705
  C        21.6033905385        5.6429080947        0.9137251229
  C        21.5282615569        5.6874228486        2.3488740907
  C        20.4434717948        6.2100315447        3.0232691934
  C        17.2131445721        8.0190480172        0.7543087255
  C        18.2971600303        7.5054636544        0.0665310151
  C        18.4116268413        8.0535071281       -1.3025640810
  C        19.2886856967        9.1867758497       -1.5084305083
  C        19.4327303481        9.7811754138       -2.7815510678
  C        18.6193058319        9.3341512229       -3.8358228267
  C        17.6000754000        8.3871361219       -3.5474699901
  C        17.5841426120        7.6809151189       -2.3673835044
  H        16.7077045286        6.9954585099       -2.2164346400
  H        16.8838041751        8.1084575504       -4.2777379001
  H        18.6403746092        9.7160200490       -4.8452914829
  H        20.2344404376       10.5119952111       -2.9587433539
  H        20.0359138567        9.4938303587       -0.7453733657
  C        16.0648412974        8.6381094127        0.1333035023
  C        15.1458884470        9.3791350742        0.8395819732
  H        14.4320111345        9.9721289119        0.3094148475
  H        15.9098521117        8.5726651394       -0.9545721149
  C        20.4480657263        6.0824953777        4.4884167976
  C        19.6843436933        4.9964105810        4.9770280431
  C        19.7567892294        4.5685715541        6.2722570063
  C        20.5242407523        5.2237623987        7.2561705147
  C        21.2812973037        6.3077008670        6.8381108021
  C        21.1998907689        6.6797968967        5.4742727263
  H        21.8727259850        7.5420834982        5.2422857677
  H        21.9370516926        6.8394849516        7.5742576479
  H        20.6746860947        4.8440875696        8.2754895861
  H        19.1445610311        3.7158994077        6.6063933167
  H        18.9410940591        4.4831135844        4.3470559443
  C        22.7076942149        5.2006206343        3.0239001044
  C        23.8158955378        4.6100956633        2.3068725402
  C        23.8301997081        4.6250405963        0.9303229366
  C        22.7348889987        5.0757040824        0.2431132223
  H        22.5846190729        4.8692293398       -0.8222616012
  H        24.5786323172        4.0578487445        0.3720839442
  H        24.6369494096        4.2658336072        2.9569080967
  H        22.6803271505        5.1933332711        4.0927087539
  C        20.4712991521        6.0066921410       -1.2579140553
  C        19.5473695649        5.0654297617       -1.7564509260
  C        19.6488701852        4.6798801274       -3.1446316887
  C        20.6411869953        5.2205084102       -3.9523272669
  C        21.5349904572        6.2602183889       -3.4597346071
  C        21.4311961381        6.6482044569       -2.1050082386
  H        22.0874678639        7.4464298140       -1.6492475850
  H        22.2488703572        6.6540611686       -4.1734753865
  H        20.5219990623        4.9097714775       -5.0286255547
  H        18.9189981114        4.0554200803       -3.6174360712
  H        18.7329112944        4.6198442018       -1.1070535371
