140

  C         3.7944711244       -0.6022131484       14.0876878091
  C         4.7316123736        0.1767488592       14.8265044318
  C         5.8162850271        0.7842793405       14.1566083585
  C         6.9130830623        1.4502255281       14.7603980603
  C         8.0401562671        1.8690543863       14.0932865283
  C         4.7497343827        0.4471643856       16.3216287937
  C         4.0227462104        1.5601028902       16.7472404392
  C         4.2185641734        2.0585767314       18.0339860375
  C         5.1231485260        1.4409691578       18.9352357866
  C         5.7941176623        0.2783830979       18.4995901469
  C         5.6434885590       -0.1693971243       17.2097191103
  H         6.9301552515        1.5846854578       15.8467454503
  H         8.8478875428        2.2374035186       14.6963457080
  H         3.2075077309        1.8852931756       16.0941797059
  H         3.6805102046        2.9481965235       18.3721535131
  H         5.0910421916        1.7910329762       19.9360051659
  H         6.4434263976       -0.1439073598       19.1579886393
  H         6.2888567648       -0.9349188106       16.8440756156
  C         3.7953376603       -0.5204336230       12.6036597119
  C         2.8446321845       -1.1350927809       11.7908835194
  C         1.7232195453       -1.7313925067       12.3822839191
  C         1.7150926950       -1.8286785044       13.8202633312
  C         2.6848100442       -1.2794256455       14.6515047548
  C         5.9127593028        0.7678084284       12.7171428069
  C         4.8728845976        0.2457739186       11.9361423308
  C         4.8405934919        0.4783924818       10.4426540140
  C         3.9615358146        1.4581406310        9.8441600144
  C         3.9046493750        1.8014211413        8.4961258841
  C         4.9431887373        1.2802092417        7.6841368826
  C         5.8787722462        0.4131935016        8.1959407106
  C         5.8061004747       -0.0687514624        9.5624250972
  H         6.4234312310       -0.8967186119        9.8937848889
  H         6.7346866787        0.1003188738        7.6013363167
  H         5.0420707724        1.6767303133        6.6234626242
  H         3.1646620776        2.5338298706        8.1550950763
  H         3.2962587050        2.0943982203       10.5190015590
  C         7.0793421273        1.3065352573       12.0353357543
  C         8.1982001057        1.7157971179       12.7058053801
  H         9.1802429687        1.9970132171       12.2081185767
  H         6.9738431652        1.4984640892       10.9990944645
  C         2.6437915007       -1.5579668868       16.1554630144
  C         3.4737256602       -2.6279012681       16.4509236929
  C         3.5934004227       -3.2616288829       17.7126586533
  C         2.8659102133       -2.6422441281       18.7371050984
  C         2.2539377470       -1.3951381730       18.5468209623
  C         1.9613031455       -0.9537894866       17.2471486915
  H         1.3816022482       -0.0791979537       16.9116694841
  H         1.9238904958       -0.9183012241       19.4296937794
  H         2.9567921067       -3.0565494039       19.7467200847
  H         4.1167827763       -4.1749571222       17.8716102665
  H         4.1069122110       -3.0743955020       15.6531770994
  C         0.5653859206       -2.4122136423       14.3944981687
  C        -0.4444994938       -3.0258044965       13.6356597480
  C        -0.3277654423       -2.9683467004       12.2559138815
  C         0.6955089664       -2.2740692363       11.6303062335
  H         0.6279367004       -2.1674137240       10.5775343297
  H        -1.1143342553       -3.3387621880       11.6389005663
  H        -1.3167420300       -3.3814613285       14.1891583529
  H         0.6395021889       -2.3600475455       15.4662362861
  C         3.1405734316       -1.4359791008       10.3197542370
  C         4.0918074146       -2.4568095364       10.1347405531
  C         4.2600537682       -3.0054869134        8.8299554988
  C         3.4185361748       -2.5736475669        7.8319171748
  C         2.5542491310       -1.4921672914        8.0249411534
  C         2.3505597151       -0.9662928548        9.2911284589
  H         1.4608967129       -0.3453174781        9.3429359382
  H         1.7976072284       -1.2637307985        7.2718414555
  H         3.3538499254       -2.9741685968        6.8298574275
  H         4.8433393226       -3.9031690692        8.7336921359
  H         4.6478472664       -2.8078444750       10.9923247234
  C        11.2554835035       -0.8275390264       14.2671391160
  C        12.2127753209       -0.0920680078       14.9685123136
  C        13.3817176644        0.2767066158       14.2772489896
  C        14.4203940709        1.0409828532       14.9652735805
  C        15.4408064178        1.6087976502       14.3183536167
  C        12.1299552467        0.3037942928       16.4146552316
  C        11.3467242811        1.3920498779       16.8287010554
  C        11.4780962552        1.8690167494       18.1518125795
  C        12.4406246946        1.3442120566       19.0580835987
  C        13.2310979499        0.3383978195       18.5866224560
  C        13.0178816859       -0.2583936626       17.3531810159
  H        14.4453127625        1.0668383415       16.0172203432
  H        16.1984798237        2.1400157721       14.8869391309
  H        10.7160417783        1.9601105909       16.1494661724
  H        10.8285361617        2.7284587539       18.5160084462
  H        12.6447984782        1.8364919755       20.0336827952
  H        13.9459403408       -0.1284511680       19.2647650266
  H        13.5801462956       -1.1026129150       17.0028817678
  C        11.3001650399       -0.8764910634       12.8044521330
  C        10.2324485321       -1.5169316768       12.1294709285
  C         9.0610705437       -1.8350389974       12.7773293262
  C         9.0639333546       -1.8588257662       14.2156980828
  C        10.1589039731       -1.4547366359       14.9865708664
  C        13.4895711018        0.1826972508       12.8434757929
  C        12.3905898096       -0.3269198670       12.0853694884
  C        12.2750508512        0.1053886316       10.5623399549
  C        11.5536183108        1.2759774085       10.2237298829
  C        11.4665326963        1.7629669087        8.9291733725
  C        12.1398422403        1.1910015103        7.8259650472
  C        12.8735229643       -0.0217990708        8.1783619201
  C        12.9918162631       -0.4318892174        9.5325310705
  H        13.5389042524       -1.3742278661        9.6540430114
  H        13.4143015588       -0.5107597510        7.3993770918
  H        12.0976733293        1.5000426076        6.7940100588
  H        10.8432125225        2.6514753222        8.8232271849
  H        11.0427412367        1.9286980486       10.9579215017
  C        14.5836867820        0.8168655780       12.1386120271
  C        15.5077582904        1.5530938894       12.8662851268
  H        16.3720919594        2.0563776176       12.3611455519
  H        14.6471527133        0.7873573390       11.0647536744
  C        10.2628068988       -1.8783963372       16.3977859067
  C        11.1942818024       -2.8535674587       16.7637729399
  C        11.2938477389       -3.3066442137       18.0988650889
  C        10.3965927756       -2.7961633891       19.0960758708
  C         9.5605470863       -1.7483044671       18.7178258502
  C         9.4542303423       -1.2930952501       17.3885991360
  H         8.6949665489       -0.5639700691       17.1140692912
  H         8.8795399492       -1.3696172456       19.5131424513
  H        10.2894591251       -3.2006293348       20.1077881692
  H        12.0855493459       -3.9731208996       18.3619789185
  H        11.8246478196       -3.3491888338       15.9550410165
  C         7.9167715043       -2.4657062386       14.9123846117
  C         6.8285703703       -2.9610093896       14.2243684174
  C         6.8776951122       -2.9643328476       12.7868863094
  C         7.9251470163       -2.4311895733       12.1130980117
  H         8.0277411051       -2.6800156257       11.0556605825
  H         6.1475251037       -3.5430023086       12.1942335318
  H         5.9745987537       -3.4233719086       14.6834632192
  H         7.9242095593       -2.4884664798       15.9553825392
  C        10.2307950789       -1.9047934038       10.6785895757
  C        10.9328483856       -3.0063933058       10.2223124906
  C        10.9784098032       -3.4049602222        8.8328508946
  C        10.2027888221       -2.7122883317        7.8562420715
  C         9.4111211353       -1.6255431979        8.3439556490
  C         9.4102510674       -1.2401482577        9.7100999753
  H         8.7289896776       -0.4342570370        9.9793803854
  H         8.9315634057       -0.9458162720        7.6889765102
  H        10.3591161963       -3.0498178070        6.8272490568
  H        11.6508062625       -4.2552903339        8.5199017322
  H        11.5138837059       -3.4973654869       10.9648340926
