140

  C        11.5268530365        6.6192792618        0.6776047307
  C        10.5512292057        7.4159980340        1.3792944910
  C         9.4830894504        7.9683523805        0.6427047285
  C         8.4772477680        8.7070579853        1.3743294250
  C         7.4793207042        9.4259686540        0.7255248563
  C        10.6909398219        7.7267503301        2.8361062775
  C        11.2736390782        8.8981754228        3.1971552333
  C        11.1069815942        9.4020354578        4.5508542470
  C        10.2402553633        8.7329089845        5.4262116526
  C         9.6947764131        7.5310050260        5.0604492434
  C         9.9257998112        6.9947406591        3.7708677947
  H         8.4810900822        8.8714320907        2.4345380155
  H         6.7323060258       10.0076451514        1.2380298208
  H        11.9571050650        9.4927117833        2.4291207777
  H        11.5561378039       10.3967857244        4.7682406335
  H        10.0391510184        9.2005576771        6.3837529255
  H         9.1540673933        6.9474271287        5.7428745330
  H         9.4564390012        6.0680306917        3.5565700898
  C        11.4953281710        6.4834489799       -0.8076305325
  C        12.4928710358        5.8159396067       -1.5003289154
  C        13.6292202143        5.3534500826       -0.7638311407
  C        13.7304508559        5.4823564487        0.6955978671
  C        12.5566262968        5.8957615526        1.3645803687
  C         9.4074440079        7.8809183185       -0.7626390977
  C        10.4282770633        7.1129653567       -1.4963749162
  C        10.4780263858        7.3374620110       -2.9629860188
  C        11.2717263208        8.3952931753       -3.4584176941
  C        11.2317825797        8.8679040915       -4.7923706442
  C        10.2498846784        8.3965599809       -5.6451066053
  C         9.3901816030        7.4555187034       -5.1677309740
  C         9.4988731323        6.8829669241       -3.8703440938
  H         8.7549658821        6.0246119160       -3.7437923085
  H         8.5314758276        7.1721009539       -5.8079704968
  H        10.0827832210        8.8396203246       -6.6363268083
  H        12.0328879652        9.5521259047       -5.1530628589
  H        12.0781504482        8.7411537933       -2.7937951135
  C         8.3141686297        8.5527098759       -1.4271944052
  C         7.3913936643        9.2745925407       -0.6872418282
  H         6.5348184216        9.6726468981       -1.1901346033
  H         8.2210628780        8.6630682290       -2.4594143227
  C        12.5216686722        5.5798455666        2.8101793727
  C        11.8583089948        4.4043735712        3.2195793288
  C        11.8690540221        4.1325013844        4.5589120871
  C        12.5956059879        4.8967827261        5.4929102709
  C        13.3008887155        6.0269007129        5.0334571759
  C        13.3760110293        6.2989505676        3.6891063220
  H        13.8780177817        7.1688059296        3.2628971234
  H        13.8224515975        6.7206763384        5.7122113524
  H        12.6821281526        4.5569928047        6.5288445633
  H        11.4010009283        3.2440660767        4.9756238050
  H        11.2968457035        3.8155189339        2.5324299725
  C        14.8143440987        4.9224806241        1.3321220131
  C        15.8297235389        4.2463441406        0.6635164725
  C        15.8156810113        4.1828683412       -0.7812399674
  C        14.6960328067        4.6250935770       -1.4259680981
  H        14.6543226727        4.4488123053       -2.4386936225
  H        16.6775864479        3.6626846439       -1.2093897265
  H        16.8003311557        3.9432275744        1.1522693821
  H        14.8776698051        4.8537491688        2.4145930342
  C        12.3748766366        5.4200310056       -3.0051780765
  C        11.5156732953        4.4122084398       -3.4006620379
  C        11.4345914563        3.9747668888       -4.7539199972
  C        12.3274695729        4.4285151178       -5.7100762654
  C        13.1559766332        5.4625202375       -5.3599986884
  C        13.2602249331        5.9181331521       -4.0505645830
  H        14.0091819567        6.7067286343       -3.8249826444
  H        13.7712589218        6.0091333349       -6.0498592636
  H        12.3939134331        3.8769429486       -6.6421412383
  H        10.5663305332        3.2483167268       -4.8458610943
  H        10.7393517213        3.9790281582       -2.8863154927
  C        18.7433965995        6.5478604350        0.8497505184
  C        17.7408897753        7.2713998907        1.5940499942
  C        16.6829369848        7.8765125687        0.8414025960
  C        15.5979244368        8.6005705354        1.5244979189
  C        14.5725591687        9.2121096395        0.7862325506
  C        17.7136284040        7.5421408759        3.0771381002
  C        18.4607628200        8.6731188666        3.5144135893
  C        18.2429557358        9.1871426453        4.8344400842
  C        17.4203546844        8.4965057699        5.7431824323
  C        16.7675274490        7.3616803053        5.2296307342
  C        16.8992770934        6.8645015685        3.9485300726
  H        15.5209458781        8.5988091028        2.6366020979
  H        13.7623956350        9.7066168705        1.3364337405
  H        19.1632679642        9.1305430204        2.8274989550
  H        18.7010375685       10.1525032186        5.0424429626
  H        17.1692872090        8.8604786758        6.7160965926
  H        16.0423552948        6.9435525851        5.9078525404
  H        16.3612605380        6.0109506044        3.5623723047
  C        18.7144392518        6.5203250137       -0.6366696424
  C        19.7557843746        5.9038733005       -1.3139627853
  C        20.8040368481        5.2824238428       -0.6212534221
  C        20.8428227860        5.1794825393        0.8631914840
  C        19.7073801876        5.7115307744        1.5547939266
  C        16.6571005608        7.8718295259       -0.6197081252
  C        17.7042165047        7.2213839530       -1.3731288257
  C        17.6779941734        7.4582173891       -2.8639745489
  C        18.3872207797        8.5620940769       -3.3238436537
  C        18.3558552916        8.9469884190       -4.6976797696
  C        17.5549981917        8.2301402618       -5.5730299543
  C        16.8043055223        7.1304348509       -5.0568161990
  C        16.8612568447        6.7747172401       -3.7524770828
  H        16.0895809600        6.0464868471       -3.3906842448
  H        16.0956693854        6.5507550918       -5.6207824148
  H        17.5168089943        8.3925181070       -6.6296027581
  H        18.7647509916        9.8899540953       -5.0064551613
  H        18.9971237757        9.0748286502       -2.5710258266
  C        15.5333531521        8.4424685333       -1.3280100817
  C        14.5528490852        9.0949727643       -0.6448101442
  H        13.7437252992        9.4667929875       -1.2381217763
  H        15.4817638954        8.4881186096       -2.4317984911
  C        19.5846779536        5.2489477761        2.9526545955
  C        18.7517414904        4.1757067720        3.3326856733
  C        18.7316698303        3.6664615522        4.6502172964
  C        19.4578327757        4.3309461631        5.6690100681
  C        20.3717433198        5.3076144155        5.2630260670
  C        20.3704732006        5.8268681509        3.9538316088
  H        20.9215861275        6.6970809692        3.7820326511
  H        20.9754333557        5.7671317554        6.0562601648
  H        19.5468677243        4.0678484422        6.6984660845
  H        18.0195617355        2.9287945499        4.9391472744
  H        18.1102508300        3.6612976116        2.6216665691
  C        21.9887701023        4.5392733615        1.5012733901
  C        22.9837723270        3.9777820467        0.7763222733
  C        22.8614114077        3.9245522558       -0.6590425916
  C        21.7933852718        4.4758363119       -1.3222530197
  H        21.8236343386        4.3864241122       -2.3768594280
  H        23.5867827903        3.4393893672       -1.2924135021
  H        23.8925123923        3.6865221672        1.2943984317
  H        21.9649008641        4.5542074362        2.5500105255
  C        19.7144874792        5.5817030624       -2.8112183429
  C        18.8743486347        4.5098646013       -3.1850147372
  C        18.9581935713        3.9221264901       -4.4895275352
  C        19.9166072510        4.4664432590       -5.3318569409
  C        20.6982818605        5.5257430077       -4.9637377499
  C        20.6301890387        6.1106412365       -3.7218779279
  H        21.2592157465        6.9409958539       -3.5126963466
  H        21.3878557992        5.9238274979       -5.6940554732
  H        20.0559358405        4.1091430201       -6.3843214405
  H        18.2793217184        3.1331370331       -4.8134279472
  H        18.1412360383        4.0836374852       -2.4690970026
