140

  C         4.4850407083       -1.0443932312       14.1475125787
  C         5.4931624199       -0.3067291846       14.8584653475
  C         6.5765153112        0.1868311531       14.0963754138
  C         7.7712370946        0.7342603562       14.7410922023
  C         8.9020483234        1.1731907432       14.0852380481
  C         5.3718028020        0.0121554699       16.2838870539
  C         4.4731794190        1.0219087942       16.6887935494
  C         4.5136865999        1.5364463219       18.0301950688
  C         5.4436060053        1.0070279487       18.8946050195
  C         6.3814466991        0.0132372823       18.5075012562
  C         6.3418482158       -0.4429993955       17.2243205543
  H         7.7664605417        0.8568199666       15.8532257706
  H         9.7629912977        1.6749243227       14.5128221486
  H         3.7325575425        1.3426635199       15.9422235444
  H         4.0567052413        2.4333857560       18.2757035189
  H         5.5152917083        1.4760838254       19.8492248318
  H         7.0913195014       -0.3715899300       19.1613221582
  H         7.0363472698       -1.2132129459       16.8815809323
  C         4.4592983951       -1.0403021719       12.6648893151
  C         3.4272681788       -1.7317208865       11.9196162122
  C         2.3735491775       -2.3001400774       12.6345313741
  C         2.4583180865       -2.4310425432       14.0685261191
  C         3.4900615955       -1.8174507604       14.7642830865
  C         6.6838832845       -0.0033799128       12.6551572314
  C         5.6152566519       -0.5785717444       11.9425498771
  C         5.6398641507       -0.2871806459       10.4722758423
  C         5.0292116930        0.8455053243        9.8935457204
  C         5.1243177632        1.1607674500        8.5733575431
  C         5.6860793460        0.2745571145        7.7009528554
  C         6.4777743199       -0.7274460559        8.2525885588
  C         6.3803438638       -1.0499238021        9.5959998295
  H         6.9702471829       -1.8672529674       10.0195346216
  H         7.0873415465       -1.4012850841        7.6749237114
  H         5.5652215822        0.4618381726        6.6407732282
  H         4.6254235080        2.0615868751        8.0601342007
  H         4.4343677966        1.5174349855       10.4662545924
  C         7.8638172430        0.4607109907       11.9647851248
  C         8.9510442738        0.9731655731       12.6520147616
  H         9.8258424918        1.2751408300       12.0513783821
  H         7.9780426077        0.2207267039       10.9183584724
  C         3.6221508484       -2.0884380734       16.2103578775
  C         4.5984383578       -3.0756105824       16.6006829035
  C         4.6745227932       -3.4599905605       17.9853329319
  C         3.8347064969       -2.9071777066       18.9812758598
  C         2.7449806654       -2.1616357344       18.5456727404
  C         2.6401958243       -1.6949027513       17.2166255985
  H         1.9154377084       -0.9673800717       16.9936312593
  H         1.9743925001       -1.7838438769       19.2643259372
  H         3.9156651009       -3.1248920011       20.0504142386
  H         5.4153169335       -4.1823461780       18.4479008919
  H         5.1130525413       -3.7712228870       15.8458800623
  C         1.5220406931       -3.2194637574       14.7427714639
  C         0.3936674520       -3.7594549692       14.1920894749
  C         0.1353895169       -3.4323449748       12.8444615190
  C         1.1462818646       -2.7837185088       12.0827950989
  H         0.8902228034       -2.7167077484       10.9886746298
  H        -0.7394949306       -3.6774721666       12.2160926953
  H        -0.1236268542       -4.5024118326       14.8853163792
  H         1.6928954217       -3.4210444156       15.7946621469
  C         3.6885064184       -2.2313161013       10.5859793725
  C         4.3452822547       -3.4453115987       10.4269045759
  C         4.5108986389       -4.0718016087        9.2282818573
  C         3.9444349167       -3.5382207316        8.0320400457
  C         3.2498355809       -2.3354982885        8.1459683466
  C         3.1360676785       -1.6942945648        9.3884288959
  H         2.6000683827       -0.7619215315        9.4068694949
  H         2.6998313743       -2.0015048031        7.2623547678
  H         3.9008697367       -4.0437181684        7.0454673424
  H         4.9938416048       -5.0117869176        9.1818274011
  H         4.7801624332       -3.8901987182       11.3449221025
  C        11.9579750671       -1.0118683574       13.9422598358
  C        12.9170860213       -0.1987103801       14.6105303394
  C        14.0334250182        0.2823101374       13.8973186970
  C        15.1663782402        0.8403048303       14.5345393949
  C        16.2257427132        1.4265368068       13.8999235382
  C        12.8346674423        0.1320420032       16.0550695090
  C        11.9292657422        1.1853148963       16.4558441471
  C        11.6867955067        1.4512279904       17.8005075743
  C        12.5549444695        0.9668043491       18.7620807817
  C        13.5490877346       -0.0065252289       18.3345752917
  C        13.6427427534       -0.4247233255       17.0484116014
  H        15.1025065040        0.9363950944       15.6035047573
  H        17.2085169766        1.8150833102       14.3974549772
  H        11.2668392185        1.6300899361       15.6808818872
  H        11.0343315245        2.2296861992       18.0919386834
  H        12.4435499088        1.1237908256       19.8716369790
  H        14.1699535672       -0.4046019779       19.0851889662
  H        14.2841297233       -1.2639080914       16.7875508959
  C        12.0082733214       -1.1038819538       12.4772798726
  C        10.8801964778       -1.8233008263       11.8695226517
  C         9.8401191991       -2.3903169156       12.6049432844
  C         9.8314208087       -2.2703525040       14.0144895920
  C        10.9317212240       -1.6383884672       14.6736918498
  C        14.0393575195        0.2483525041       12.4428978174
  C        12.9930027411       -0.3839300414       11.6975974269
  C        12.8263838080       -0.1689557765       10.2588075913
  C        11.8696257975        0.7185004491        9.7913406489
  C        11.9767413082        1.1735285520        8.4895875345
  C        12.9615046887        0.6896903712        7.6444185108
  C        13.8595175937       -0.2620461944        8.0739884825
  C        13.7613928721       -0.7126266276        9.3907845902
  H        14.5145048044       -1.4479136960        9.7579232809
  H        14.6344150855       -0.6046416553        7.4070294774
  H        13.0257589360        1.0299853794        6.5906637393
  H        11.2733381807        1.9595505767        8.1959717534
  H        11.1635156641        1.0983423601       10.5778710642
  C        15.2004978442        0.8265123224       11.8032734862
  C        16.2253301089        1.3982449047       12.4557859581
  H        17.0743460019        1.7562522924       11.8833122301
  H        15.2391015699        0.8520743875       10.7203347109
  C        11.1053852591       -1.9819676331       16.1187303840
  C        12.0492439176       -2.9814261621       16.4745078008
  C        12.1796847768       -3.4371795024       17.8354102454
  C        11.3540641364       -3.0031167667       18.7906677098
  C        10.3798368537       -2.0099871113       18.4717618726
  C        10.3159494470       -1.4907170666       17.1700852301
  H         9.6213841703       -0.6776871415       16.8627767069
  H         9.6348923352       -1.7289329564       19.2397627691
  H        11.2400958907       -3.4329447010       19.8173815571
  H        12.9985926850       -4.0380769383       18.1620425216
  H        12.7557637315       -3.4311599281       15.7707716607
  C         8.7194689352       -2.7738816004       14.7668439260
  C         7.7085071949       -3.4840418713       14.1525803266
  C         7.7870552545       -3.7871398594       12.7233509506
  C         8.7683237691       -3.1688800052       11.9707805393
  H         8.6696937849       -3.2821610629       10.8560104689
  H         7.0060473703       -4.3642866083       12.2558288823
  H         7.0093491048       -3.9976024417       14.7610600025
  H         8.6794159212       -2.6427362428       15.8596599262
  C        11.0344824466       -2.1769307621       10.4077610166
  C        12.0187869919       -3.1354080690       10.1952252205
  C        12.1922382660       -3.7082061725        8.9570075549
  C        11.4247776320       -3.3013958717        7.8600124309
  C        10.4066726299       -2.3024067819        8.0986829369
  C        10.2441316014       -1.7649899917        9.3417046877
  H         9.3768386955       -1.0613745748        9.4232203995
  H         9.8566673610       -2.0309946540        7.2400184194
  H        11.5236894524       -3.8291064157        6.9136095471
  H        12.9755159920       -4.4512298886        8.9892624507
  H        12.6098549574       -3.5440406160       10.9575632577
