140

  C         2.5475504668        0.3882846932       14.4600679287
  C         3.6983017462        0.9822155910       15.2101215010
  C         4.7540881825        1.4897544687       14.4621347599
  C         6.0012276240        1.8989633651       15.1812034140
  C         7.0381794171        2.3892756208       14.4371380962
  C         3.5535646035        1.4509153860       16.6177371691
  C         2.7464585398        2.5939454095       16.7900451244
  C         2.6214474519        3.0752964587       18.1379801326
  C         3.2950709353        2.4909309006       19.1523025484
  C         4.2113094934        1.4048697089       18.9362910164
  C         4.2280017531        0.8551409808       17.6713392354
  H         6.1499864647        1.8304270580       16.2894728817
  H         8.0097083059        2.5914634867       14.9508314542
  H         2.3844790006        3.1013486677       15.8903836860
  H         2.1602367332        4.0270024741       18.3363741421
  H         3.0649448027        2.8728025788       20.1661537176
  H         4.7942386560        0.9254243119       19.7124505260
  H         4.7261148371       -0.0815434910       17.5158247154
  C         2.4762814402        0.5052694573       13.0171647180
  C         1.4783115096       -0.1796779951       12.3097863781
  C         0.3719245025       -0.7071541241       12.9946446458
  C         0.4228223438       -0.7575524517       14.4557316157
  C         1.4530176982       -0.1871932041       15.1994923586
  C         4.6883543535        1.6962556036       13.0747030962
  C         3.5564311712        1.2314084161       12.3151383351
  C         3.4673802988        1.7370837620       10.9321905363
  C         2.5043419659        2.7041521320       10.6243481410
  C         2.2929549303        3.0591426129        9.2603191523
  C         3.1469494622        2.5795915191        8.2759164656
  C         4.1303717668        1.6353075681        8.5847855750
  C         4.2443400256        1.1578399550        9.9148390864
  H         4.9097666265        0.3125235750       10.1752115420
  H         4.7152504071        1.2124722372        7.7919175505
  H         3.0436836672        2.9786418865        7.2841582792
  H         1.4832228384        3.7843634986        9.0153454856
  H         1.9893231098        3.2291312781       11.3950193895
  C         5.6725302435        2.4660125727       12.3905873121
  C         6.8313743594        2.7671802611       13.0680533686
  H         7.5633090344        3.4330782035       12.5146348583
  H         5.4272718437        2.7204815156       11.3801630595
  C         1.5337834731       -0.7160047538       16.5903158946
  C         2.4276092697       -1.7949994300       16.9474197297
  C         2.3889177563       -2.4079621394       18.1810260306
  C         1.5080094002       -1.9261507448       19.1822131316
  C         0.8382898739       -0.7707892270       18.9456856636
  C         0.8211228091       -0.2259752731       17.6443956681
  H         0.2028931389        0.6279127829       17.4375122189
  H         0.2066499547       -0.3080045172       19.7258220735
  H         1.5953169503       -2.4494999699       20.1459703426
  H         3.1098167579       -3.2631012083       18.4779298345
  H         2.9681469733       -2.1898943180       16.1658021427
  C        -0.6944392434       -1.3724416280       15.1466228723
  C        -1.6848162624       -1.9431229895       14.3460979612
  C        -1.8050201450       -1.8658325198       12.9305435618
  C        -0.7507335278       -1.2990055387       12.3075644901
  H        -0.8193589054       -1.3953070785       11.2354317057
  H        -2.5437718494       -2.3025270471       12.3522783075
  H        -2.4713430242       -2.4685599218       14.8448682682
  H        -0.6346424891       -1.4862097996       16.2039569851
  C         1.6419858762       -0.6480953267       10.8634012226
  C         2.3952020335       -1.7967146064       10.6498786714
  C         2.4734933808       -2.4886306777        9.4182258369
  C         1.8307160143       -1.9643263968        8.2981488023
  C         1.2221380722       -0.7316009323        8.4722572638
  C         1.1285151451       -0.0372644554        9.6986691993
  H         0.6857556546        0.9532829321        9.7141379012
  H         0.8647534445       -0.4425257397        7.5156785920
  H         1.9505007126       -2.4586903944        7.3642283134
  H         3.0509481800       -3.4487975061        9.4121091850
  H         2.9803187663       -2.1943406041       11.4907823317
  C         9.8192305199        0.1947368128       14.7266546455
  C        10.8231751682        0.9728120380       15.4574918598
  C        11.9231840311        1.6051976805       14.7532035082
  C        12.8881652965        2.4332611685       15.3932231660
  C        13.8558393411        3.0575511777       14.7099510134
  C        10.7498124992        1.2759338445       16.9026576330
  C        10.0110598293        2.3772163034       17.3012280927
  C        10.0962924169        2.7853148771       18.6329970869
  C        11.0794989185        2.2064005360       19.4686549587
  C        11.9549219753        1.2502083541       19.0086206369
  C        11.7010370217        0.7831423559       17.7903261909
  H        12.7710330495        2.5350391105       16.4749442253
  H        14.4268770306        3.8367957431       15.2766440988
  H         9.2717274152        2.8673080703       16.6410854103
  H         9.3818232548        3.4868326643       19.0910332785
  H        10.9768041870        2.5336874384       20.4917757821
  H        12.8182672900        0.9073577191       19.6137592465
  H        12.2843393329       -0.0447259430       17.3882689412
  C         9.8026470837        0.2267500782       13.2152303288
  C         8.7677627061       -0.5358346984       12.5449602922
  C         7.6942984139       -0.9595549095       13.3098515822
  C         7.8049777310       -1.0996106594       14.7535701494
  C         8.8832932802       -0.6380010436       15.4880968123
  C        11.9216009435        1.5564598553       13.2863760497
  C        10.8427080860        0.9732425927       12.5668666031
  C        10.6662204965        1.2957089960       11.0914332126
  C         9.6787214955        2.3070037070       10.7173231002
  C         9.8243535623        2.9024842207        9.4518076951
  C        10.6286221545        2.2692508067        8.4674866955
  C        11.5950983730        1.3392263119        8.8459066737
  C        11.6343833843        0.9197514260       10.1576835009
  H        12.4707723041        0.3029042788       10.4566155319
  H        12.2120333759        0.8551623971        8.0922652920
  H        10.5393945194        2.6954300256        7.4221370675
  H         9.0494180050        3.6106191470        9.0659683139
  H         9.1062455724        2.7612690349       11.5105394351
  C        13.0768927770        2.1171262315       12.5851094286
  C        14.0352844520        2.8568571147       13.2874219343
  H        14.7566581968        3.4419776459       12.6896082782
  H        13.2585653183        1.8900195632       11.5298574225
  C         9.0651567074       -0.9673580342       16.9726972906
  C        10.1519481183       -1.7690122634       17.4782454276
  C        10.1478998029       -2.1388943377       18.7934163168
  C         9.1592953067       -1.7775441379       19.7026884251
  C         8.2003163216       -0.8475187419       19.3158388069
  C         8.1343839596       -0.5145542469       17.9192025555
  H         7.2758436326        0.0511590739       17.5874530025
  H         7.5331777970       -0.3405455133       20.0436053970
  H         9.1650709235       -2.1860873864       20.7250544449
  H        10.9606883377       -2.7908506391       19.2423956420
  H        10.9612814797       -2.0625066774       16.8601862728
  C         6.7587700696       -1.7687065023       15.4353595558
  C         5.6990547538       -2.3606025212       14.7662893916
  C         5.5752321774       -2.2670223071       13.3579985610
  C         6.5792745421       -1.6145014930       12.7249722188
  H         6.5948071180       -1.6337070892       11.6368809078
  H         4.6837936098       -2.5043223209       12.8672776601
  H         4.9974196169       -2.8798903427       15.4423088644
  H         6.8260397354       -1.9096610519       16.5125909403
  C         8.7904929624       -0.8108360349       11.0769556124
  C         9.6488659112       -1.7522543208       10.5752338384
  C         9.6692372728       -2.0838252757        9.1890467684
  C         8.9210645092       -1.3934658461        8.2688923281
  C         8.0627768529       -0.4002934766        8.8065733934
  C         7.9627394099       -0.1171358912       10.1465624887
  H         7.2430532787        0.5977225309       10.4191424928
  H         7.4156839176        0.1134176466        8.1359885730
  H         8.8903649208       -1.5847322791        7.1854250404
  H        10.1995449334       -3.0021630003        8.9222640706
  H        10.3499497300       -2.2277683474       11.2362843805
