140

  C         5.5661122983       -0.5099407944       16.1441525597
  C         6.6756930322        0.1704765416       16.7706126603
  C         7.5929504894        0.8580994070       15.9550306201
  C         8.6694080021        1.6731386247       16.5160747314
  C         9.6239724963        2.3418894621       15.7975735420
  C         6.6142463880        0.5788623441       18.1787389935
  C         5.7998957836        1.6862716118       18.5750426186
  C         5.7459385039        1.9325978020       19.9909223861
  C         6.5380844275        1.2113221194       20.9372445688
  C         7.4668236518        0.2973475198       20.5139378642
  C         7.3831908171       -0.0383827159       19.1620576315
  H         8.6434455032        1.7149371769       17.5849667110
  H        10.3628420705        3.0458242814       16.1919162151
  H         5.2263229818        2.3101053378       17.9281196483
  H         5.1373860675        2.8345240055       20.2849019190
  H         6.5177599508        1.5435263084       21.9961426743
  H         8.0362251072       -0.3164582600       21.1674052760
  H         7.8563152331       -0.8972005203       18.7395230676
  C         5.5312944115       -0.5221815083       14.6941021344
  C         4.4750805216       -1.1766272196       14.0279742522
  C         3.3541807322       -1.6946751551       14.7703368360
  C         3.4427298617       -1.7601974100       16.2277390644
  C         4.5703301034       -1.2387977869       16.8943104057
  C         7.5221435005        0.8438634268       14.5588296525
  C         6.4827472170        0.1961471187       13.8769103306
  C         6.2490502173        0.6243593774       12.4216367408
  C         5.1509168919        1.4948550396       12.1781437179
  C         4.9967872152        2.0456612009       10.8681068496
  C         5.8462900769        1.5906713107        9.8365096897
  C         6.7997591765        0.6096731391       10.1130882358
  C         7.0642300185        0.1415909079       11.4033400814
  H         7.8859513212       -0.6099129586       11.5924940599
  H         7.3940050971        0.2268741867        9.2863095830
  H         5.7072313592        1.8971823941        8.7912537452
  H         4.2039699233        2.7651723031       10.6072512398
  H         4.6043652009        1.7852868973       13.0738061617
  C         8.4786255205        1.5578632313       13.8070725458
  C         9.4983740845        2.2873293882       14.3511741020
  H        10.2329992431        2.7874215538       13.7330199015
  H         8.3183851009        1.5682397550       12.7230170418
  C         4.7028731310       -1.5962415428       18.3336241372
  C         5.3651097660       -2.7299733477       18.8117291792
  C         5.2820539149       -3.2241482028       20.1191946275
  C         4.5091062408       -2.5654816718       21.1178871735
  C         3.7951165755       -1.4082175192       20.6825641696
  C         3.9819012245       -0.9062544100       19.3765851847
  H         3.3688505632       -0.0544273284       19.1288826400
  H         3.0494130349       -0.8401944667       21.3109807026
  H         4.5492070408       -2.9546520074       22.1175405160
  H         5.8330136009       -4.1559131040       20.3599706383
  H         5.9417604800       -3.3098722696       18.0685913234
  C         2.2799098894       -2.2439438586       16.9010060849
  C         1.1002851438       -2.6502963868       16.2606180612
  C         1.0908949437       -2.5765867448       14.8487765346
  C         2.1699683674       -2.1772343686       14.1687595669
  H         2.0847620198       -2.1873353386       13.0933953629
  H         0.2219278223       -2.9179929247       14.3335226373
  H         0.1826529687       -2.8749469520       16.8219705595
  H         2.3164366021       -2.1936038648       18.0223890001
  C         4.4633725115       -1.5278344371       12.6075666994
  C         5.1607104509       -2.6394600667       12.0614335162
  C         5.0340831311       -2.9973043063       10.7401731721
  C         4.1926240034       -2.2439720263        9.8267686802
  C         3.4751271330       -1.2462200683       10.4004583726
  C         3.5605950092       -0.8663362828       11.7441643400
  H         3.0174144206        0.0363308946       12.0409841569
  H         2.8079136663       -0.7273114304        9.7671286863
  H         4.1900471245       -2.5962268069        8.7887003070
  H         5.5682410698       -3.8053585424       10.3287849157
  H         6.0003198117       -3.1854808764       12.6317696808
  C        12.6644349288       -0.0443006818       16.2269633851
  C        13.6488562329        0.7517321120       16.9171212291
  C        14.6939758926        1.2216937732       16.1781089873
  C        15.7887092104        1.8331272276       16.8688758295
  C        16.7837195598        2.5037560464       16.2059364445
  C        13.6502634950        0.8531799652       18.3970646747
  C        12.9064652946        1.9242142335       19.0660127229
  C        13.0737073932        2.1820264864       20.4646012030
  C        13.9845701447        1.3526725085       21.1049000675
  C        14.8009929559        0.3572073838       20.4827765697
  C        14.5550220329       -0.0012224183       19.1519585599
  H        15.8532254124        1.7149693293       17.9261208385
  H        17.6780075367        2.9039048640       16.7361624032
  H        12.3266841145        2.5717863448       18.4093959185
  H        12.3945214400        2.9006958139       20.8568059157
  H        14.2890881472        1.5214767075       22.1222395914
  H        15.5469511867       -0.2043770249       21.0808810068
  H        15.1321591450       -0.8659655261       18.8686664739
  C        12.6141957385       -0.0917153365       14.7342172522
  C        11.5573452776       -0.7996689072       14.0740909798
  C        10.4984164781       -1.4301265508       14.7435661669
  C        10.5991797012       -1.4457567253       16.1765265648
  C        11.6845036887       -0.8176246550       16.9188569201
  C        14.7046003411        1.1424993835       14.7266006882
  C        13.6256778419        0.5236524293       14.0256141672
  C        13.5416064212        0.8642895883       12.6514206432
  C        12.5229311853        1.7955792511       12.3021835622
  C        12.4090151107        2.2415143739       10.9741981791
  C        13.2036328294        1.6294882589        9.9304974726
  C        14.2614382146        0.7858259391       10.2753411618
  C        14.3161833938        0.3689555970       11.6140110974
  H        15.0482128481       -0.3817820997       11.9237424069
  H        15.0649393547        0.4398869167        9.5790623545
  H        13.0201202739        1.9410522600        8.9023559012
  H        11.6459939114        2.8586071009       10.5602056219
  H        11.7760632033        2.0881355202       13.0479975451
  C        15.7440027212        1.8765479811       14.0790764442
  C        16.7304045472        2.5802908607       14.7644784593
  H        17.5352853947        3.1457082645       14.2383062220
  H        15.7454518199        1.8681285675       12.9746297352
  C        11.7610005225       -1.2523036862       18.3523069419
  C        12.5746156115       -2.3805688202       18.7468849507
  C        12.4494395450       -2.8899048548       20.1252213140
  C        11.7400478693       -2.2131309468       21.1204370112
  C        11.1109229847       -0.9860931043       20.7742873303
  C        11.0340438411       -0.5980719445       19.4196665335
  H        10.5390272331        0.3284322431       19.1649223497
  H        10.5916069191       -0.4140996060       21.5891960010
  H        11.7196899667       -2.4930142803       22.1562758658
  H        13.0088496386       -3.8072271102       20.2165841734
  H        13.2618059617       -2.9986757747       18.1661836926
  C         9.6741089451       -2.3296223701       16.9097091993
  C         8.6076844544       -3.0345392359       16.2867037170
  C         8.5475559823       -2.9318668394       14.8570805902
  C         9.3645928823       -2.0925023076       14.1343924409
  H         9.1507337560       -1.9861593381       13.0500724147
  H         7.6250964207       -3.2720143278       14.4337661165
  H         8.0199557844       -3.7765044818       16.8729039517
  H         9.7568964480       -2.2855832085       18.0226627936
  C        11.5615047774       -1.1503716501       12.5180278610
  C        12.3410245863       -2.2899517681       12.1493388216
  C        12.2958673656       -2.7881133204       10.8208702356
  C        11.4451387542       -2.1271582091        9.8684558471
  C        10.5101248166       -1.1189968499       10.3107264157
  C        10.6486417531       -0.6222624356       11.6090060762
  H        10.1814500167        0.3533431691       11.8527448656
  H         9.8420103968       -0.6372961932        9.5799501395
  H        11.4478940256       -2.5457031890        8.8554374209
  H        12.8348352458       -3.6704096059       10.5352636384
  H        12.9373890425       -2.6746058303       12.9405227919
