140

  C        11.1373274854        6.4815633569        0.4956814595
  C        10.2357652403        7.2918850802        1.2508825160
  C         9.1497622765        7.9017265599        0.6145080949
  C         8.0262280523        8.5285302730        1.3108120195
  C         6.9429701479        9.1037109875        0.6361240004
  C        10.3948153170        7.5694879156        2.7090992344
  C        11.3631928882        8.5042101869        3.1580691205
  C        11.4140230825        8.9318681522        4.4587591080
  C        10.4497033445        8.4543986411        5.4488617057
  C         9.4811540339        7.6638080865        4.9909823763
  C         9.4631646754        7.1765538716        3.6783962774
  H         8.0268327798        8.5117534790        2.3818742169
  H         6.0756901241        9.4845599799        1.1882354823
  H        12.0404236031        8.7804621118        2.4522203664
  H        12.1415964027        9.6748847592        4.6624674569
  H        10.4735384500        8.7949796821        6.4681790223
  H         8.7261515750        7.2239832762        5.7041407780
  H         8.6835037467        6.4109754267        3.3613959238
  C        11.0141167454        6.3799961348       -1.0065287237
  C        11.8926042089        5.5033018344       -1.6480508574
  C        12.9317901182        4.8528867952       -0.9303891430
  C        13.1579298284        5.0293717801        0.4555191019
  C        12.1361881823        5.6611916925        1.1767735898
  C         9.0383074349        7.8330792847       -0.8790618658
  C        10.0680565778        7.2325291595       -1.6642038715
  C        10.1389866752        7.4994032240       -3.1155324193
  C        11.0256305956        8.4827514553       -3.5729614239
  C        10.9544834083        8.8165820319       -4.9210803100
  C        10.2125689812        8.0845331428       -5.9049608862
  C         9.4452820331        7.0388696812       -5.4520089815
  C         9.3577088325        6.7972982272       -4.0406545077
  H         8.7286080125        6.0294103131       -3.7069991871
  H         8.8928052007        6.3866449284       -6.0627029771
  H        10.3728670630        8.5359152242       -6.8787429766
  H        11.6738548100        9.5672413137       -5.2810001741
  H        11.6880526985        9.0110684436       -2.8629816609
  C         8.0784987157        8.6397970874       -1.4455681923
  C         7.0167064142        9.2067914103       -0.7718055245
  H         6.1849766507        9.6973109835       -1.1960863451
  H         8.0841418292        8.7229567026       -2.5432582586
  C        12.1083502954        5.3405284058        2.5976228993
  C        11.2866299503        4.3020625822        2.9891679394
  C        11.2517397934        3.8120799307        4.3391766623
  C        12.1636548157        4.3428963426        5.2243708411
  C        13.1182758379        5.2843900479        4.8034847157
  C        13.1022393945        5.8041196608        3.5156582776
  H        13.8329175860        6.5806330313        3.2292551101
  H        13.8804905934        5.6273062831        5.4999344172
  H        12.1621892234        4.0800573299        6.2592556546
  H        10.4579255582        3.0843023273        4.6089389596
  H        10.5123930184        3.9586373549        2.3413047172
  C        14.4058759603        4.5167459273        0.9328822877
  C        15.3893670124        3.9196810857        0.1792232400
  C        15.0958461516        3.6846523120       -1.2035819127
  C        13.8632890911        4.0848597789       -1.6989869712
  H        13.7088142753        3.9398865384       -2.7853583219
  H        15.8331416754        3.0559323886       -1.7213354431
  H        16.3175763406        3.6408554550        0.5986568007
  H        14.5267156406        4.4456297648        2.0208512579
  C        11.8868450049        5.2603694476       -3.1143821237
  C        11.2178260925        4.1272021468       -3.6752276080
  C        11.4363819239        3.7096321894       -4.9431693463
  C        12.1924240086        4.4345915795       -5.9226715521
  C        12.8732034072        5.5375060846       -5.3913434728
  C        12.6744783193        6.0232155871       -4.0493003224
  H        13.2831814245        6.9256899391       -3.9231663981
  H        13.4909569682        6.2040807719       -5.9415773359
  H        12.4674688533        4.0707030265       -6.9275511138
  H        10.7960723655        2.8712156010       -5.1711136365
  H        10.4898689223        3.5822548912       -3.0936634387
  C        18.3656781253        6.4664875230        0.1974682438
  C        17.3288332646        7.0399058806        0.8891589285
  C        16.2190986955        7.5278412341        0.1545369139
  C        15.0866509008        8.1137733319        0.9012008761
  C        14.0683505795        8.7814854301        0.2877270474
  C        17.4010021983        7.3196658313        2.3389043362
  C        18.1383516032        8.4443749359        2.7320950534
  C        18.3382612557        8.7057440483        4.0639626102
  C        17.7276427893        7.8748675900        4.9991114134
  C        16.8410476813        6.8373075577        4.6313655125
  C        16.7261934911        6.4946318821        3.2458761463
  H        15.0789453327        8.1063599753        2.0054852383
  H        13.3725685134        9.4024101891        0.8264062718
  H        18.5277572186        9.0668387606        1.9377768053
  H        18.8486895337        9.5930182295        4.4406826400
  H        17.8328284343        7.9717396494        6.0794316927
  H        16.2223013059        6.3581690069        5.3662369747
  H        16.2754295691        5.5733828308        2.9163125503
  C        18.3606263325        6.4498636980       -1.2843686267
  C        19.4344490618        5.7408847369       -2.0080458771
  C        20.5797033787        5.3228850551       -1.2941958544
  C        20.6739728342        5.4399406290        0.1720268432
  C        19.5147294492        5.9182405550        0.8794215604
  C        16.1431676595        7.5174161411       -1.3484047309
  C        17.3192477234        7.0867819431       -2.0489441999
  C        17.4595529759        7.5264268375       -3.4605930558
  C        18.3305747669        8.5903859974       -3.9214962293
  C        18.2774182108        9.0026341161       -5.2025810918
  C        17.5282757026        8.3897239990       -6.1952181299
  C        16.6995890464        7.3161958680       -5.7870467039
  C        16.7072766372        6.8725259404       -4.4465448956
  H        16.0784330022        6.0435226966       -4.1832809903
  H        16.1478186130        6.8678979650       -6.6155460911
  H        17.6072543321        8.6514805226       -7.2901049500
  H        18.7471864106        9.9766850966       -5.3983131950
  H        19.0092220844        9.0473301564       -3.1666239090
  C        15.0158142325        8.1394894439       -1.9305126089
  C        14.0395518805        8.7341619939       -1.1749104668
  H        13.2776696178        9.1097250153       -1.7827324588
  H        14.9601973599        8.1793691088       -3.0300808997
  C        19.4181950858        5.4575615089        2.3258506170
  C        18.6088276030        4.3662108759        2.5775486367
  C        18.5586930114        3.8504621028        3.8912004661
  C        19.3969601229        4.4061435155        4.9118144185
  C        20.2577377605        5.4456540927        4.5404773738
  C        20.2811396329        5.9538167335        3.2562544852
  H        20.8480110744        6.8726816698        2.9597915706
  H        21.0012490017        5.6792546337        5.2729805358
  H        19.5149087289        3.8473225556        5.8544562053
  H        17.9129144132        2.9418487426        4.0860544275
  H        17.8977472107        3.9669473753        1.8182054020
  C        21.7781142208        4.8644907224        0.8858546975
  C        22.8283250985        4.2658883072        0.2272511347
  C        22.7014210142        4.0865452634       -1.1781603363
  C        21.6311537057        4.5557382180       -1.9237944722
  H        21.6090714192        4.3744509016       -2.9651991364
  H        23.4674353762        3.5511320789       -1.7411335189
  H        23.6960397911        3.9922042575        0.8138557438
  H        21.7885794164        4.9287416905        1.9627103404
  C        19.2683693982        5.2170457353       -3.4483556922
  C        18.2571379239        4.2937964009       -3.6147756682
  C        18.0923108315        3.6842065242       -4.8280197369
  C        18.9716169801        3.8912849233       -5.8574977073
  C        19.9988230042        4.8503417581       -5.7235076315
  C        20.1636663595        5.5297314915       -4.5207907565
  H        20.9118068673        6.3177417736       -4.4005605949
  H        20.7303683160        5.0212002077       -6.5271096638
  H        18.7860435048        3.3327753058       -6.7609279891
  H        17.2865880225        2.9574800617       -4.9925131144
  H        17.6736847607        4.0741031476       -2.7805906057
