140

  C         5.1012778622       -0.0251607212       16.1808640978
  C         6.1829146854        0.6344121738       16.8434360841
  C         7.2882621202        1.1197517852       16.1372437939
  C         8.4379899186        1.6571973345       16.7669289227
  C         9.4144162677        2.3314990671       16.0881602013
  C         6.2341450281        0.8604511635       18.3703205087
  C         5.6130018358        1.9480626267       18.8958375441
  C         5.5154873707        2.1010127174       20.2844288263
  C         6.2197583296        1.2299231802       21.1030201777
  C         6.9670287773        0.1801283769       20.5529357515
  C         6.9444566816       -0.0342664940       19.2167377973
  H         8.5137593085        1.5158946167       17.8586458360
  H        10.2980597514        2.7829401576       16.5078174097
  H         5.0765780880        2.7224422039       18.2872695002
  H         5.0714349499        3.0263432543       20.6648715701
  H         6.4722821406        1.2945976718       22.1970541925
  H         7.5666274535       -0.4604088957       21.2416255459
  H         7.3236994125       -0.9497014402       18.7443183984
  C         5.0500121173       -0.0272907355       14.7166226707
  C         3.9882311088       -0.7267037727       14.1041623325
  C         2.9899934226       -1.2816300356       14.8588136138
  C         3.0347221774       -1.3518944698       16.2571818319
  C         4.1296632520       -0.7557951725       16.9169736589
  C         7.2931317804        1.0498504844       14.6912602627
  C         6.1925889293        0.5350827125       13.9844429432
  C         6.2494572343        0.7539386506       12.5072061763
  C         5.8140924957        2.0525925708       12.0208627346
  C         5.8322573018        2.3372806646       10.6744249655
  C         6.2870839953        1.3595430667        9.8233567565
  C         6.7223093237        0.1166590957       10.2323301689
  C         6.7310050215       -0.1863552020       11.5827983687
  H         7.0246652289       -1.1682463908       11.8966259930
  H         7.0261958814       -0.6074467194        9.4743270559
  H         6.3214498335        1.4798756303        8.7680469492
  H         5.5388926960        3.2713980464       10.2496852590
  H         5.5579731053        2.8263916722       12.7627775173
  C         8.4138657948        1.6222077346       14.0446650172
  C         9.4322637995        2.2413177089       14.7074393052
  H        10.2516466320        2.6383091393       14.1774205716
  H         8.4904694839        1.2680997997       13.0511914365
  C         4.3008929445       -1.2329213965       18.3040505489
  C         5.1202590301       -2.3645233549       18.6761173447
  C         5.1486019394       -2.8726794497       19.9988247655
  C         4.2478123394       -2.3740051218       20.9654916869
  C         3.4660410596       -1.2848738600       20.5807099792
  C         3.4610058227       -0.7286342762       19.2931186907
  H         2.8343314090        0.1266704489       19.0689448148
  H         2.8811359979       -0.7691247692       21.3051530548
  H         4.1398649508       -2.7757524199       21.9644325746
  H         5.8543387969       -3.6092964070       20.3863706640
  H         5.7919995708       -2.7096617830       17.9141088753
  C         2.1767144641       -2.2472843316       16.9953165089
  C         1.1602389871       -3.0037700194       16.3853097240
  C         1.1121238271       -2.9133348534       14.9720917432
  C         1.9359242738       -2.0710467714       14.2698727460
  H         1.7583265511       -2.0489297142       13.2124176817
  H         0.3771014112       -3.4469398623       14.3968515028
  H         0.5836106216       -3.6154997908       17.0528626424
  H         2.2032264598       -2.2781405081       18.0480409846
  C         3.9510415976       -1.1961132536       12.5930876412
  C         4.4541793324       -2.4482167669       12.1857471698
  C         4.5095255454       -2.7798451517       10.8817738627
  C         3.9082223536       -1.9044384044        9.9416089202
  C         3.3122715048       -0.7538243746       10.3352998762
  C         3.2958153244       -0.3517105114       11.6541783152
  H         3.0357485930        0.6630701667       11.9546548638
  H         2.7923136332       -0.1136082879        9.6156145968
  H         3.8842989643       -2.1929955296        8.9304131512
  H         4.9553767093       -3.7831474466       10.5397903886
  H         4.9626491791       -3.0611302700       12.8875082279
  C        12.2702474623       -0.0823862536       16.2266612746
  C        13.2653292646        0.6669542505       16.9164915037
  C        14.4083171515        1.1063237156       16.2496065795
  C        15.4488759541        1.8148331406       16.9354970499
  C        16.4074511318        2.5086251297       16.2479630582
  C        13.0104004737        1.0409354764       18.3537667847
  C        11.8589757764        1.8117966456       18.5792680688
  C        11.5889374746        2.2388014054       19.8815416264
  C        12.4345055496        1.8811520589       20.9473291448
  C        13.5686661043        1.1422930803       20.6809293802
  C        13.8914862815        0.7613095607       19.3553526422
  H        15.5210501610        1.8042284360       18.0022216450
  H        17.2482976318        2.9713762417       16.7619524711
  H        11.3267544823        2.1220680553       17.7164614138
  H        10.6584970666        2.7256720116       20.0854590332
  H        12.2412171112        2.2695250175       21.9642658385
  H        14.2763172502        1.0584511678       21.5272158321
  H        14.8042054456        0.2105408342       19.1378470833
  C        12.4172361482       -0.1687602991       14.7755404245
  C        11.3049276134       -0.8330910232       14.0743435037
  C        10.2454660548       -1.4458880012       14.7448435682
  C        10.2308943383       -1.5066786071       16.1923527802
  C        11.2126301724       -0.8775453751       16.8635028302
  C        14.3758752937        1.1656563354       14.8379585581
  C        13.3586378249        0.6095808145       14.0663262451
  C        13.1825818381        1.0706526185       12.6131826718
  C        12.3381607267        2.1620785511       12.4008930158
  C        12.2052958658        2.7119492999       11.0953543828
  C        12.8939921542        2.1349642604       10.0240080861
  C        13.8565673059        1.1453751912       10.2887316564
  C        13.9550277906        0.5820022691       11.5200569497
  H        14.6724380034       -0.2135688484       11.6668892921
  H        14.6411829740        0.9346166958        9.6087788085
  H        12.8187593173        2.4530888111        8.9984679419
  H        11.5190858794        3.5345794743       10.9123663257
  H        12.0447275486        2.7126666924       13.2941141435
  C        15.3714446560        1.9882314623       14.1991780854
  C        16.3979402779        2.5963588814       14.8876678334
  H        17.0712915466        3.2421446274       14.2764619294
  H        15.3263144057        2.0458355815       13.1075874434
  C        11.2910970772       -1.1298167264       18.3042110428
  C        12.3743369158       -1.9804917324       18.6262751766
  C        12.5419230358       -2.3643457025       20.0242863002
  C        11.4892195077       -2.1613356121       20.9253389650
  C        10.4965654785       -1.1998600120       20.6312769103
  C        10.4187337115       -0.6985873071       19.3386945543
  H         9.6179252553       -0.0025348304       19.1212904382
  H         9.8473688052       -0.8837752767       21.4769695399
  H        11.5570647558       -2.5398531959       21.9263916976
  H        13.4300993976       -2.8678144979       20.3609668496
  H        13.1005820455       -2.3691051016       17.8861421077
  C         9.1187010506       -2.2564957303       16.7519454829
  C         8.1421640596       -2.8191247600       15.9970221741
  C         8.2653681422       -2.9268664468       14.5505836493
  C         9.3362548482       -2.2651728984       13.9825865915
  H         9.6889328680       -2.4924622961       12.9470309670
  H         7.5977619939       -3.6720727678       14.1013865752
  H         7.2076044011       -3.3635810516       16.3101979093
  H         9.1453823172       -2.3837194519       17.8041192684
  C        11.5506004318       -1.1579087257       12.5777327424
  C        12.4620156896       -2.1654596458       12.2098100566
  C        12.4117125559       -2.7472770542       10.9095797055
  C        11.4110481898       -2.3504569768       10.0566838834
  C        10.5276647033       -1.3002073091       10.3802971678
  C        10.6116824265       -0.7484018494       11.6200401436
  H         9.9001234064        0.0068541730       11.9265915177
  H         9.6519740656       -1.1290509516        9.7662194233
  H        11.2804978935       -2.9619384374        9.1832140258
  H        12.8651069769       -3.7214273871       10.7387774930
  H        13.1028261894       -2.4853627539       13.0142029678
