140

  C         4.1920874115       -0.2872799729       14.4804257795
  C         5.2058073504        0.4435894345       15.1154608794
  C         6.3139820140        0.9855247179       14.4194560426
  C         7.2829435907        1.8460137508       15.1065164475
  C         8.2663324568        2.5238172844       14.4356202205
  C         5.1672022447        0.7462554179       16.5547852112
  C         4.2794235260        1.6827146371       17.0849949564
  C         4.3663668611        2.0721966951       18.4083804962
  C         5.1456757644        1.3365297237       19.2697778265
  C         5.8789367089        0.2187450156       18.7689619540
  C         5.9211667772       -0.0007981565       17.4215764451
  H         7.2140562033        2.0623782615       16.1943410805
  H         8.8437383727        3.2596871187       14.9985134215
  H         3.6059270043        2.2715064840       16.4401355087
  H         3.8440461283        2.9656484185       18.8325486667
  H         5.1007274076        1.5311838584       20.3314510265
  H         6.5678672889       -0.3106329130       19.4532300542
  H         6.4760675235       -0.8484120106       16.9560824724
  C         4.2108083910       -0.3319902069       12.9742439903
  C         3.2743103275       -1.0762784724       12.2947005818
  C         2.1281631290       -1.6333376560       12.9705921785
  C         2.0632444072       -1.5070700576       14.4051145482
  C         3.1591648997       -1.0220832567       15.1449790468
  C         6.3686475477        0.8723903802       13.0089838595
  C         5.2652910910        0.2984899045       12.2879796435
  C         5.1352987474        0.7298261137       10.8797821576
  C         4.1799528082        1.7227019359       10.5667809105
  C         3.8796001388        1.9924055632        9.2347312982
  C         4.4640953924        1.3477821343        8.1377847534
  C         5.5020145956        0.4125159686        8.4815443643
  C         5.7664222132        0.1121589360        9.7961645414
  H         6.5590205416       -0.6750105410        9.9729496265
  H         6.0441810640       -0.1129264564        7.6613023702
  H         4.3228007518        1.7080924136        7.0711753623
  H         3.1929652832        2.7700251484        8.9936031360
  H         3.4943254051        2.1997536717       11.2345284682
  C         7.4792007386        1.5019780376       12.3709036821
  C         8.3800184659        2.2855763387       13.0347139329
  H         9.0358661103        2.8995836351       12.4145085926
  H         7.6209930186        1.3625705855       11.2960904936
  C         3.1849888228       -1.5136274774       16.6013259672
  C         3.8528895008       -2.6714114647       16.8813301669
  C         3.7473112925       -3.3127561738       18.0987329955
  C         3.0281458484       -2.7491050652       19.1283308997
  C         2.2827520967       -1.6003654607       18.8432522509
  C         2.3886282213       -0.9579797460       17.6130000443
  H         1.7149252300       -0.1452888651       17.2887862951
  H         1.5839005440       -1.1307954973       19.5938912240
  H         2.8432643274       -3.1907151898       20.0814880845
  H         4.3957125891       -4.2011544514       18.1893471006
  H         4.5611580468       -2.9828102948       16.1455570163
  C         0.8847773622       -2.0640735106       15.0492619422
  C        -0.1344628509       -2.7932330530       14.4761041486
  C         0.0041858848       -3.0282872972       13.1043245475
  C         1.0459210173       -2.4588232244       12.3464052125
  H         1.0824456747       -2.5507141027       11.2670868071
  H        -0.6821745337       -3.6780342049       12.5742921598
  H        -0.9335789342       -3.2582668345       15.0839411017
  H         0.8464423922       -1.9123181398       16.1768178194
  C         3.2330441945       -1.3165152571       10.8632860728
  C         4.2044554556       -2.2086889679       10.4631143338
  C         4.1543385639       -2.7612699697        9.1449713114
  C         3.2661723083       -2.2120385113        8.2620276056
  C         2.2945870308       -1.2014923257        8.6282325795
  C         2.2535206230       -0.7938456672        9.9483040310
  H         1.5680741288       -0.0413489704       10.4040212483
  H         1.7039426244       -0.8546204034        7.7977666494
  H         3.2290274857       -2.5469805426        7.2827107145
  H         4.8051770137       -3.5664921151        8.8927443177
  H         4.8797767139       -2.5974967289       11.2443468241
  C        11.3234455066       -0.3870784472       14.1586596377
  C        12.2525888633        0.4133504451       14.8887388109
  C        13.4155591243        0.9403144128       14.2563064579
  C        14.2903720172        1.8853038816       14.8960624237
  C        15.3772743668        2.4215081753       14.3275418319
  C        12.0687856283        0.7642980232       16.3030548034
  C        11.1668283371        1.7965258634       16.6628522105
  C        11.1758591641        2.3415473966       17.9441309728
  C        12.1739798383        1.8430500979       18.8681815312
  C        12.9495339989        0.7678711603       18.5488578864
  C        12.9301789105        0.2044460080       17.2626720208
  H        14.1336790219        2.0803705057       15.9506123705
  H        15.9975225630        3.2286622749       14.8301928948
  H        10.3968087859        2.1634568361       15.9486555225
  H        10.7072124388        3.2551787696       18.1683576357
  H        12.2513139819        2.2995279152       19.8348366307
  H        13.6321618784        0.3289296435       19.2906496056
  H        13.7627825706       -0.3703657816       16.9000194541
  C        11.3061712058       -0.2523564266       12.6824965379
  C        10.3039563967       -0.9214917198       11.9903185402
  C         9.1668384664       -1.5363916526       12.6906019866
  C         9.1577351440       -1.5849939567       14.1133533596
  C        10.1954089525       -0.9775710555       14.8114225494
  C        13.5092656874        0.8401031516       12.8310140622
  C        12.4128900452        0.4195960055       12.0587396067
  C        12.4481894636        0.7983495951       10.5930342104
  C        11.5822089734        1.7765045568       10.0596546985
  C        11.6229251967        2.1974382430        8.7161395242
  C        12.5363103298        1.6335914067        7.8321332325
  C        13.4235469902        0.6326672152        8.4006573384
  C        13.3692514620        0.2555358736        9.7246637263
  H        14.0594219208       -0.4675395384       10.1466320174
  H        14.1677362158        0.1751813203        7.7506422422
  H        12.8449167547        1.9076376844        6.8278462995
  H        11.0109166688        3.0580156766        8.4995992133
  H        10.8910911586        2.2961880680       10.7584910435
  C        14.6546960115        1.5672564769       12.2490633307
  C        15.5596983393        2.2665671723       12.9252806745
  H        16.3753615192        2.8531518670       12.5010438528
  H        14.7476256026        1.6055588192       11.1431201999
  C        10.1552408207       -1.2345839332       16.2776863323
  C        10.9329835752       -2.2536135192       16.8009487095
  C        10.9206992062       -2.5632608243       18.1793916058
  C        10.0926189081       -1.8128241225       19.0469707698
  C         9.3159072892       -0.7880164997       18.4808575537
  C         9.3433366079       -0.5187508173       17.1233075755
  H         8.7995002203        0.2982151231       16.6565080702
  H         8.6795855137       -0.1490330542       19.0832380416
  H         9.9573341983       -2.0230769127       20.1285636882
  H        11.6186051428       -3.3893747073       18.4698262750
  H        11.5421591207       -2.9773151955       16.2187558052
  C         8.1871970409       -2.3754977967       14.7655499254
  C         7.0950155168       -2.9300467480       14.1186676517
  C         7.0836108832       -2.8823784432       12.7050615584
  C         8.1332370090       -2.2252569823       12.0334080633
  H         8.0390936987       -2.2759066493       10.9828296652
  H         6.4348231202       -3.4912275745       12.0984793553
  H         6.3222541804       -3.5706760677       14.5574311268
  H         8.3248369247       -2.4267238180       15.8645120922
  C        10.3228341777       -1.2775354046       10.5071060810
  C        11.1518784923       -2.2833161916       10.0542560847
  C        10.8743559378       -2.8499728474        8.7891673948
  C         9.8341697183       -2.4212827930        7.9586770104
  C         8.9829190235       -1.3677286652        8.3383150984
  C         9.2689580861       -0.8636230636        9.6033420040
  H         8.6566008515       -0.1208292056       10.1231454540
  H         8.2401880129       -0.9861821633        7.6317447248
  H         9.7785927075       -2.8950078442        6.9588457981
  H        11.5927028707       -3.5718850564        8.4226556387
  H        12.0387809124       -2.6199025070       10.5623227209
