140

  C         4.7447814912       -1.4371273252       13.9403570481
  C         5.7037323511       -0.5983073975       14.6021406275
  C         6.7907180350       -0.0214844614       13.8712455965
  C         7.8084933151        0.6815120076       14.5528047780
  C         8.8852449426        1.2348303795       13.9004865646
  C         5.6808813802       -0.3225394039       16.0789355293
  C         4.7602860712        0.6368372842       16.6556726779
  C         4.6905981833        0.7963928360       18.0148253966
  C         5.6034093397        0.2166502349       18.8373368554
  C         6.6849415388       -0.4730565919       18.3459468342
  C         6.6904434360       -0.8427857603       16.9579521775
  H         7.6601304233        0.8647178844       15.6514311871
  H         9.6716604443        1.7006401531       14.5192105271
  H         3.8892239718        1.0683686928       16.1031907025
  H         3.8788936946        1.3670046716       18.4057477248
  H         5.5686733100        0.3333137636       19.9468509533
  H         7.5110528275       -0.8744621932       19.0405857068
  H         7.4910056304       -1.4428452167       16.4873285967
  C         4.7496966005       -1.4214230241       12.4397537039
  C         3.7177118025       -2.1281529445       11.7658784904
  C         2.5954774381       -2.6209244493       12.4367520004
  C         2.6022800647       -2.7057889165       13.8936438905
  C         3.7403110828       -2.1254965467       14.6200081481
  C         6.8099153712       -0.0683019208       12.4384273512
  C         5.6964990787       -0.6148175234       11.7319954425
  C         5.5530339071       -0.1786700004       10.2835385992
  C         4.9689619372        1.0439580810        9.9750293275
  C         5.2578565407        1.6757199336        8.7387647761
  C         6.1446915103        1.0953702430        7.7576832080
  C         6.5931463922       -0.1843294492        8.0296325688
  C         6.3270621391       -0.7844059252        9.2780630470
  H         6.8629430856       -1.7050064824        9.4463203694
  H         7.3747177015       -0.6704049350        7.3969728972
  H         6.4825732026        1.6402497758        6.9082082377
  H         4.8920789138        2.7060580887        8.6925980840
  H         4.4112949408        1.5010790661       10.8177042981
  C         7.9358971345        0.4492911765       11.7887621847
  C         8.9712080769        1.0249947650       12.4801769687
  H         9.7436819739        1.5115298022       11.9130300673
  H         8.0119676910        0.3079091030       10.7372101074
  C         3.8947559954       -2.4404062781       16.0575858954
  C         4.8368227682       -3.3709305532       16.5753516024
  C         4.7434873509       -3.8632885074       17.8823555400
  C         3.8129800386       -3.3195015288       18.7578760548
  C         2.8216809187       -2.4768113060       18.2656571218
  C         2.8875416590       -1.9777578634       16.9575260565
  H         2.2200869505       -1.1903360753       16.5533542654
  H         1.9406617177       -2.3942928819       18.8756809721
  H         3.7641456378       -3.7245719578       19.7477195214
  H         5.4518143255       -4.5509183934       18.2557849525
  H         5.5258411742       -3.7807064885       15.9352538919
  C         1.4667109377       -3.3350203952       14.5252366791
  C         0.5371682733       -4.0342209879       13.8301326536
  C         0.5311418182       -3.9103501478       12.3666599532
  C         1.5309385033       -3.2776719745       11.7837053290
  H         1.5180825738       -3.2011247607       10.6710402018
  H        -0.2738489088       -4.3736950479       11.7881888972
  H        -0.1114702754       -4.5696934523       14.5280330943
  H         1.3846310315       -3.2982715172       15.6202170518
  C         3.8933557342       -2.3591019680       10.2559783989
  C         4.5147688470       -3.5588221953        9.8230576575
  C         4.4643738426       -3.7794012610        8.4449638839
  C         3.9310824404       -2.8365560739        7.5017148495
  C         3.2696711768       -1.7302847899        8.0198866202
  C         3.2202496346       -1.5155334616        9.3877626362
  H         2.7584605151       -0.6624223743        9.8782143449
  H         2.7594329094       -1.0289472585        7.3646705613
  H         3.9792363847       -3.0559940038        6.4394446013
  H         4.7664350461       -4.7817532848        8.1451372184
  H         4.9663069407       -4.2961875423       10.4930099897
  C        11.8863645535       -1.0207289986       13.9570246155
  C        12.9375923994       -0.3277801908       14.5731540471
  C        14.0701280937        0.1845578966       13.8542157356
  C        15.1514532649        0.8136451794       14.5772723901
  C        16.2179030154        1.2942372039       13.7823666660
  C        12.8476853214        0.0677384272       16.0380310144
  C        11.9736142639        1.0906111787       16.4198909268
  C        12.1270676209        1.6162206027       17.6456585143
  C        12.9017159065        1.0152816398       18.6496382400
  C        13.6613243155       -0.1312813538       18.3217712584
  C        13.6742322395       -0.5315324569       17.0024647874
  H        15.1422957303        1.0094641946       15.6265316078
  H        17.0048591335        1.7965222513       14.2689402931
  H        11.0295822431        1.3839926683       15.8827799174
  H        11.5849453476        2.5156799571       18.0001672467
  H        12.7998125635        1.4180572939       19.6199724277
  H        14.1781221296       -0.5927240373       19.1493357276
  H        14.3601148990       -1.2807495592       16.6349440201
  C        11.8815776370       -1.0256503762       12.5253669461
  C        10.8538648895       -1.7745571653       11.8348530835
  C         9.8928967553       -2.4852198108       12.5865947883
  C        10.0155934234       -2.5221470899       13.9948015541
  C        11.0543927935       -1.8741818749       14.6629733120
  C        14.1269280963        0.1027466421       12.3857555160
  C        12.8993103516       -0.3700628425       11.7493973567
  C        12.8549346861       -0.0028409676       10.3242764607
  C        12.2444672378        1.2023161354        9.8721024776
  C        12.3766591926        1.5974041744        8.5056976585
  C        13.0944827530        0.8053252928        7.6090592654
  C        13.8106518741       -0.2846784384        8.0955648555
  C        13.6776972389       -0.7046449700        9.4321735999
  H        14.1902466425       -1.5590268126        9.7672755558
  H        14.5098530300       -0.8196997076        7.4138343176
  H        13.1828490422        1.0893525158        6.5316744790
  H        11.9119843227        2.4927218147        8.1493113469
  H        11.6788289375        1.7909416531       10.5459263897
  C        15.2550805383        0.5709711003       11.6755882797
  C        16.3499612511        1.0590891914       12.4040401261
  H        17.2420156121        1.4094629283       11.8834166087
  H        15.2384214357        0.6708822343       10.6134524345
  C        11.1878872978       -2.2582811538       16.1100202256
  C        11.9559344288       -3.3785503787       16.5098644991
  C        11.8001231870       -3.8297972588       17.8675666103
  C        11.1063708943       -3.0640508728       18.7767313071
  C        10.3423135884       -1.9513594928       18.3875531760
  C        10.3080781303       -1.6276162805       16.9959257191
  H         9.7289462729       -0.8183766959       16.5891802385
  H         9.8073552103       -1.3733590741       19.1312761702
  H        11.0867470971       -3.2552729702       19.8176063954
  H        12.4188771271       -4.7063231947       18.1360155898
  H        12.3612351428       -4.0272173038       15.7321760464
  C         8.9700197606       -3.1616239079       14.7029632259
  C         7.9856430797       -3.8698333139       14.0814866812
  C         7.9333119907       -3.9507354633       12.6424465228
  C         8.8831476620       -3.2331146304       11.9595991976
  H         8.9416295539       -3.2620955318       10.8924795083
  H         7.1679558820       -4.5576308084       12.1587009624
  H         7.2650634823       -4.4208684126       14.6795112563
  H         8.9382145810       -2.9089038543       15.7608909033
  C        10.8954005838       -2.0526915271       10.3934860181
  C        11.6691436490       -3.1342377370        9.8977700350
  C        11.5818274280       -3.4538825660        8.5819335906
  C        10.8000854839       -2.7430488474        7.6651936005
  C        10.0343031496       -1.7220191664        8.2137955714
  C        10.0896778099       -1.3697655170        9.5516561098
  H         9.4895661674       -0.5415588456        9.7921876878
  H         9.4133770360       -1.1035465760        7.5775770328
  H        10.7405028711       -2.9084505586        6.5885104518
  H        12.2197615231       -4.2743835934        8.2561378054
  H        12.4225171697       -3.6691798228       10.4940319143
