140

  C        10.5828438867        7.2099290950        1.4138119780
  C         9.5570910132        7.9139790919        2.1728615911
  C         8.4309047173        8.3871863577        1.4729688529
  C         7.5719166374        9.2634407123        2.1675432811
  C         6.6930738064       10.0087024555        1.4756965448
  C         9.7967570976        8.2477635491        3.6113366618
  C        10.6844347347        9.3000458905        3.7721372337
  C        10.8142163098        9.9913661761        4.9593665718
  C         9.9690996386        9.6655095941        6.0822008864
  C         9.0977782652        8.6327468727        5.9277285016
  C         8.9720705244        7.9431811080        4.7368303393
  H         7.6445777666        9.4228619142        3.2888487366
  H         5.9252735509       10.5756492707        2.0082425204
  H        11.3322833193        9.6402596523        2.9389511654
  H        11.5508841979       10.7533013775        5.0243628252
  H        10.0749833625       10.0917719354        6.9999554126
  H         8.4940601659        8.3564104732        6.7892673394
  H         8.2507900112        7.1893607232        4.7469193743
  C        10.4990513714        7.1319134043       -0.0661665092
  C        11.5893816965        6.5644889681       -0.7541815604
  C        12.7810482159        6.0673862134       -0.1144003038
  C        12.8132862784        6.0882721313        1.3782908568
  C        11.6152388812        6.4177163979        2.0719863004
  C         8.3335733440        8.3437912583        0.0128243407
  C         9.4293820190        7.8402824849       -0.7309244715
  C         9.4486074263        8.1559549926       -2.2629077610
  C        10.3062172695        9.2439411247       -2.6378645364
  C        10.4007073073        9.5884963830       -3.9768980938
  C         9.7032335078        8.7826751546       -4.9834112308
  C         8.9308428709        7.6921981378       -4.5585383914
  C         8.7573551108        7.3396656632       -3.1843008972
  H         8.2678197533        6.4184561540       -2.8670397654
  H         8.3029800378        7.0662633519       -5.2631130525
  H         9.7846603322        9.0555563883       -6.0001081969
  H        11.1181483309       10.3858602592       -4.2809658167
  H        10.8241371242        9.7707779174       -1.8550054140
  C         7.3340208788        9.0558761972       -0.6485865209
  C         6.4997801351        9.9077919091        0.1116953294
  H         5.6416746336       10.3301408823       -0.3616557136
  H         7.2000530465        9.0117215862       -1.7064422048
  C        11.5932057889        6.0750628987        3.5120789539
  C        10.7367816287        4.9818157745        3.9607642316
  C        10.8203844297        4.4837379373        5.2563267063
  C        11.6900255797        5.0176558195        6.2269187457
  C        12.5153348224        6.0495201462        5.8160805702
  C        12.5178780843        6.6018093877        4.4721312172
  H        13.1548668273        7.4609920150        4.3904919258
  H        13.2987210245        6.5130415277        6.4290499620
  H        11.8159277574        4.6410307555        7.2434975065
  H        10.1748182835        3.6815754891        5.6263024117
  H        10.0860281882        4.5019960376        3.2265818082
  C        13.9632342498        5.4593327466        1.8682052869
  C        14.8887797812        4.8084473936        1.0686811801
  C        14.8325901097        4.8076275501       -0.2838775665
  C        13.7694023981        5.3745798671       -0.8745603780
  H        13.6141711790        5.2976618201       -1.9906518836
  H        15.5761197605        4.2458306534       -0.7973990974
  H        15.7157480757        4.2800237732        1.5066666912
  H        14.1439979270        5.3261963672        2.9711754505
  C        11.4452387788        6.1621287515       -2.1038985419
  C        10.6872155227        4.9912184805       -2.3675360103
  C        10.7086226574        4.4827989417       -3.6837317804
  C        11.4076114365        5.1354604216       -4.7343466101
  C        12.2862705335        6.1542834986       -4.4490250189
  C        12.1569042065        6.7320795664       -3.1735140678
  H        12.7248201346        7.6508633673       -2.8128194945
  H        13.0016943308        6.4179432899       -5.1952114270
  H        11.2919017763        4.7876857734       -5.7865409532
  H        10.1545070387        3.5872594827       -3.8586716565
  H        10.1461514262        4.4124392508       -1.6150822080
  C        17.8754639286        7.1678756127        0.8403547618
  C        16.7921988047        7.7479685087        1.5248013509
  C        15.6883048305        8.3954921235        0.9088933353
  C        14.4746420509        8.7744953240        1.5499066765
  C        13.4039982400        9.3152115036        0.8145885765
  C        16.7992877664        8.1499661042        2.9735300010
  C        17.5575749109        9.2384451360        3.3156369546
  C        17.6067048596        9.7472823978        4.5703002112
  C        16.8685897002        9.0790308887        5.5733583321
  C        15.9872745408        7.9650720855        5.2537441104
  C        16.0989333990        7.4896795761        3.9325680266
  H        14.3231400899        8.6516675454        2.5801690898
  H        12.4511098894        9.5235919565        1.2878541180
  H        18.1991805794        9.6718984304        2.5577644745
  H        18.2167648149       10.5350471842        4.9132775272
  H        17.0457912760        9.3591272625        6.6171031322
  H        15.3061479772        7.5132331484        5.9563311599
  H        15.6557675981        6.5296035077        3.6713540310
  C        17.8609889822        7.1834962423       -0.6544116699
  C        18.9124323088        6.4503004067       -1.3382292757
  C        20.0280107301        5.9749166303       -0.6674370799
  C        20.0955377727        5.9977091277        0.7599527733
  C        19.0152430505        6.5435682307        1.4996983960
  C        15.7479753103        8.4993277102       -0.5432637649
  C        16.8899807745        7.9984373858       -1.2704462408
  C        16.9435168568        8.3310012974       -2.7396077461
  C        17.9655942600        9.2026696141       -3.1973445141
  C        18.0904412525        9.5550725522       -4.5969163596
  C        17.0800720148        9.1726406300       -5.4165257708
  C        16.1097782710        8.1987189735       -5.0156266275
  C        16.0328791023        7.8001521895       -3.7088932402
  H        15.2687407600        7.0882154073       -3.4213002002
  H        15.5200817465        7.7444162788       -5.8292873485
  H        16.8819333647        9.4338498978       -6.4207016768
  H        19.0014408604       10.0389629012       -4.8872385750
  H        18.8051637096        9.4785550433       -2.5766735415
  C        14.6858295559        9.1676332793       -1.2275439102
  C        13.4875918374        9.4290526783       -0.5870456600
  H        12.6853182941        9.7771832098       -1.2290016668
  H        14.8477570608        9.4631051094       -2.2484569604
  C        18.8940379096        6.2268346462        2.9423686098
  C        18.1445419543        5.1409886430        3.3708643449
  C        18.1446758125        4.6740504999        4.7402443003
  C        19.0834315395        5.1974850222        5.6049475214
  C        19.8280692604        6.3408643776        5.2375863546
  C        19.6414651498        6.8654977055        3.9765325124
  H        20.2131081566        7.7826898555        3.7439050918
  H        20.5129404408        6.8121296174        5.9206999265
  H        19.2824824297        4.7468833862        6.5705845888
  H        17.5409481531        3.8534423787        5.0518916210
  H        17.6701517675        4.4813364377        2.6236709261
  C        21.2575356840        5.4743295384        1.4513047440
  C        22.2510927162        4.7855431476        0.7781120889
  C        22.0813112195        4.5750951699       -0.6732997785
  C        21.0243783902        5.1733015271       -1.3501425799
  H        20.9118430506        4.9282443879       -2.3893019862
  H        22.7533068966        3.9885325813       -1.3182327345
  H        23.1576747259        4.3924900684        1.3063056049
  H        21.2531121337        5.6504269749        2.5101116052
  C        18.5958210985        6.0289240713       -2.6845691014
  C        17.4939316496        5.1383712302       -2.8639114810
  C        17.0604194869        4.7953291098       -4.1918519547
  C        17.8569873563        5.2027996452       -5.2650589287
  C        19.0393846894        5.9746337818       -5.1034558675
  C        19.3649630438        6.4126529380       -3.8019691906
  H        20.2730301326        7.0566329166       -3.6869383159
  H        19.6554192320        6.1843212331       -5.9363955652
  H        17.5171097393        4.9895214013       -6.3079176382
  H        16.1752827290        4.2420685914       -4.4489999044
  H        16.9110582463        4.7237154980       -2.0163782989
