140

  C         4.3478145829       -0.1160995750       15.6549011947
  C         5.3851099788        0.6274764989       16.3308516717
  C         6.4533291619        1.2064651890       15.5767293110
  C         7.5676168498        1.8841155296       16.2241368569
  C         8.6211728141        2.4039157918       15.5182419530
  C         5.3154244653        1.0119099036       17.7462147433
  C         4.5311767775        2.0808499140       18.2254803687
  C         4.6864544195        2.4642454967       19.6098278308
  C         5.4736644076        1.7913184446       20.4793066693
  C         6.2625681870        0.7038867738       19.9803960064
  C         6.0613429624        0.3073251625       18.6568652433
  H         7.4243542636        2.0448430569       17.2992699486
  H         9.4968364633        2.8504627778       16.0441091586
  H         3.9152247335        2.6046523863       17.5751018834
  H         4.0998213465        3.3230082670       19.9365156564
  H         5.6247379843        1.8799743916       21.5335225967
  H         6.8859367000        0.1073879067       20.6710349171
  H         6.7512815455       -0.4654203151       18.2808214129
  C         4.3502991185       -0.2143859565       14.1984076348
  C         3.3276737797       -0.9379842703       13.4648107881
  C         2.2324789891       -1.3557399044       14.2403453698
  C         2.1926329132       -1.2423372313       15.7233114671
  C         3.3433749774       -0.7425419594       16.3640623993
  C         6.4515326716        1.1385623279       14.1439020622
  C         5.3651673916        0.5514410293       13.4924070828
  C         5.1790546501        0.8990574072       12.0507866775
  C         4.2304369396        1.8883776322       11.6838320372
  C         4.1784521655        2.2560345201       10.3485783825
  C         5.0072107986        1.6973105316        9.3628113127
  C         6.0010773392        0.7981091028        9.7582170990
  C         6.0744669851        0.3485801585       11.0988021265
  H         6.9751813343       -0.2161026606       11.3465079958
  H         6.7164074852        0.4484872074        9.0055232950
  H         4.9907551401        2.2303318826        8.4099952536
  H         3.6099268790        3.0959312424        9.9990901395
  H         3.6628142698        2.4627909429       12.4140355626
  C         7.4887314202        1.8243085551       13.4297689749
  C         8.6105980523        2.3661380137       14.0981667285
  H         9.3170501072        2.8854400962       13.4315759111
  H         7.4230320572        1.8608859937       12.3506595072
  C         3.4857924894       -1.1166078050       17.7891186498
  C         4.3836720565       -2.1453920415       18.1568033151
  C         4.4969494884       -2.4996410090       19.5183308058
  C         3.6910758615       -1.8564432265       20.4861674108
  C         2.7305384491       -0.9330601076       20.0905291941
  C         2.6461628949       -0.5417643809       18.7469873283
  H         2.0070240060        0.3695884559       18.6083873983
  H         2.1445237907       -0.3553257833       20.7867659994
  H         3.6801055487       -2.1855105918       21.5448910852
  H         5.2515475439       -3.1703200667       19.9560997763
  H         4.9596147991       -2.5404560561       17.3766690341
  C         1.0137873154       -1.7328782302       16.4471463192
  C         0.0350820572       -2.4482185831       15.7933206666
  C         0.0293206284       -2.5198461356       14.3497864475
  C         1.1404747673       -2.0555640935       13.6406030242
  H         1.0240360837       -2.1185264790       12.5895733223
  H        -0.8135804680       -2.9113602256       13.7799588283
  H        -0.8063638649       -2.9024718016       16.3549620512
  H         0.9452319093       -1.5181195712       17.5066015216
  C         3.5133259703       -1.3864747226       12.0306230708
  C         4.3135191164       -2.4833435931       11.6938001847
  C         4.2040967429       -3.0532510759       10.4003768449
  C         3.4160699233       -2.5099838978        9.3863429676
  C         2.5628257130       -1.4584125774        9.7512859326
  C         2.5758210759       -0.9354415918       11.0525539517
  H         1.7812818058       -0.1786170252       11.2627560458
  H         1.9648659686       -0.9504614752        9.0129222905
  H         3.4741193814       -2.9347183080        8.3770330066
  H         4.8260638116       -3.8972820181       10.2134210654
  H         4.9297929388       -2.9771603081       12.3859336348
  C        11.4373618219       -0.0344864286       15.7044262288
  C        12.4969089039        0.6229459683       16.4115169120
  C        13.6083391897        1.1908576921       15.8109499147
  C        14.6298169221        1.8025812908       16.5811329492
  C        15.7662598485        2.3433752222       15.9600991510
  C        12.3627408383        0.9883698524       17.8960163237
  C        11.7663498465        2.2034924607       18.2378811293
  C        12.0022193422        2.8213478232       19.4317626920
  C        12.8275797346        2.2640124138       20.3883862159
  C        13.4321522900        1.0215821693       20.1157693757
  C        13.1473945513        0.3670240635       18.9103498461
  H        14.4366294396        1.9203560997       17.6894110611
  H        16.5438723845        2.7897268000       16.6278118691
  H        11.2302624059        2.7708442446       17.4372307780
  H        11.4881939396        3.7532694585       19.5054848383
  H        13.1113404623        2.8633361541       21.2860636558
  H        14.1480193884        0.6436176331       20.8182519625
  H        13.7961504356       -0.4609263886       18.7113016856
  C        11.5299507578       -0.0810554543       14.2729164225
  C        10.5149588438       -0.6755272389       13.4915136467
  C         9.3703470615       -1.1913155834       14.1311793483
  C         9.2897456842       -1.1317062567       15.6375520145
  C        10.3513938070       -0.6612280382       16.3946205905
  C        13.6204328474        1.1574520098       14.3680060679
  C        12.6042779812        0.6377571592       13.5770361868
  C        12.6400338528        0.9534749662       12.1532048749
  C        11.9425311534        2.0716819927       11.6969120839
  C        12.0695441477        2.4961224365       10.3406785480
  C        12.9585497270        1.8316737841        9.5213790086
  C        13.7100558421        0.7383701670       10.0319955537
  C        13.5604061976        0.3480520165       11.3575024346
  H        14.2134495445       -0.4257702771       11.7160516172
  H        14.4916763630        0.4454661341        9.3703440411
  H        13.1584666029        2.1118917038        8.4817227027
  H        11.5450831644        3.3534199691        9.9065979561
  H        11.3404918667        2.5815999175       12.4098335371
  C        14.7305823543        1.8641135425       13.7646918975
  C        15.7600548872        2.4891087492       14.4997800860
  H        16.4949780773        3.0836172312       13.8932192269
  H        14.7144807664        2.1335880091       12.6950262091
  C        10.4766113480       -1.0772279805       17.8272760787
  C        11.3506286911       -2.1375009799       18.0264458701
  C        11.4533407705       -2.7762515202       19.2647424192
  C        10.7851858096       -2.2839834108       20.3711235705
  C         9.9004807222       -1.2144132168       20.1722752977
  C         9.7695572561       -0.5972237544       18.9449730886
  H         9.0722578634        0.2101292673       18.8039836260
  H         9.3793740047       -0.7682150491       20.9844526830
  H        10.8489969503       -2.7480831857       21.3596226609
  H        11.8898352025       -3.7741224286       19.2613115029
  H        11.7438764773       -2.7207012480       17.2276913127
  C         8.0669763270       -1.6857298943       16.2375743336
  C         7.1379240453       -2.3495324938       15.4891459456
  C         7.2755038872       -2.4146289278       14.0764563289
  C         8.3714938371       -1.9009286195       13.4656285463
  H         8.6311329073       -2.1470516341       12.4021790216
  H         6.6114159866       -2.9572032623       13.4212986451
  H         6.3007672249       -2.8202526518       16.0360290910
  H         8.1312886243       -1.5318766899       17.2838312167
  C        10.6869504215       -1.0117572850       12.0713443278
  C        11.5234089891       -2.0724120041       11.6902898907
  C        11.6067117520       -2.4136683839       10.3400784630
  C        10.7844782829       -1.7861329389        9.3901081562
  C        10.0537483339       -0.6374469719        9.7475193352
  C         9.9685775443       -0.2830888847       11.0947963608
  H         9.4246686055        0.6252277107       11.3461858869
  H         9.5426443903        0.0146453826        9.0883346477
  H        10.8253457177       -2.0617737248        8.3296324409
  H        12.3383553676       -3.1242742561        9.9745628878
  H        12.1220126809       -2.6334064845       12.3678016334
