140

  C         2.8205512425        0.2063892114       14.6665463272
  C         3.8285649076        0.8275638196       15.4144920573
  C         5.0411500627        1.2262462179       14.7322799177
  C         6.0952718895        2.0150976519       15.4689951667
  C         7.0707047090        2.7272207044       14.7613487117
  C         3.8136417212        1.2626670008       16.8568317769
  C         3.0325696188        2.3926375937       17.2749550015
  C         3.1983488175        2.9589312364       18.5303692642
  C         4.0098592137        2.3357086410       19.4709006833
  C         4.8172026562        1.2062942790       19.0374619494
  C         4.7862251208        0.7461714139       17.7304110526
  H         5.9413917188        2.2200521931       16.5478847517
  H         7.8362317577        3.3178935883       15.2701961583
  H         2.4796424364        2.8680312879       16.4885469094
  H         2.7602489783        3.9098378048       18.8314489018
  H         4.0989679382        2.8968273342       20.4686745656
  H         5.4963421396        0.6870244415       19.7077201774
  H         5.4860526531        0.0016005687       17.3916919767
  C         2.8450684261        0.2423865038       13.2090160790
  C         1.7619875234       -0.4257499219       12.5299658534
  C         0.6583784092       -0.9232806306       13.2397669769
  C         0.6660184621       -1.0485069591       14.6597135641
  C         1.7658493951       -0.4948353840       15.3807345489
  C         5.0672232062        1.3374609992       13.3227603684
  C         3.9538728734        0.8612991668       12.5711131611
  C         3.9421841377        1.3234593383       11.1597803460
  C         3.2596867856        2.3871768413       10.6755599599
  C         3.4776456208        2.7304220927        9.2956544830
  C         4.3146134736        1.9615203849        8.4616955630
  C         4.9903738135        0.8525824053        9.0211844237
  C         4.6999502265        0.5495919542       10.2828012670
  H         5.2161982352       -0.2721333011       10.7210795750
  H         5.6526007771        0.2033686617        8.4553015219
  H         4.4754933228        2.2502357848        7.3987119959
  H         2.8835522529        3.5267686090        8.8661626026
  H         2.5671087054        2.9833840897       11.3232185810
  C         6.0872395512        2.1193645513       12.6841277891
  C         7.0898592444        2.6632008385       13.3483826735
  H         7.9606937770        3.0330854221       12.7709539481
  H         6.1482186110        2.1672861971       11.6503412055
  C         1.8043701599       -0.8211556347       16.7996958910
  C         2.6789403045       -1.8536281407       17.1718877017
  C         2.6070267490       -2.4111468319       18.4894837789
  C         1.6357513023       -1.9900608110       19.3659106818
  C         0.8199518668       -0.8947037582       18.9785183844
  C         0.9526206266       -0.2366008445       17.7699394123
  H         0.3395049829        0.6489231765       17.6151353076
  H         0.1721657284       -0.5574132924       19.8144285116
  H         1.4174671879       -2.4383378734       20.2837940216
  H         3.2760420867       -3.2434231736       18.7478036122
  H         3.3962246771       -2.3236906647       16.5393443267
  C        -0.3084879504       -1.9058509239       15.3584508049
  C        -1.2259129187       -2.6044494246       14.6649866356
  C        -1.2849604682       -2.3670501492       13.2608964027
  C        -0.3665251206       -1.6818179223       12.5029159822
  H        -0.4909037102       -1.5484632973       11.4519636891
  H        -2.1002142136       -2.8789184274       12.7033410904
  H        -2.0382341578       -3.1647156843       15.1598236108
  H        -0.3274525237       -1.9056786167       16.4433008179
  C         1.8145987773       -0.7145748179       11.0402818981
  C         2.3668461355       -1.9459881764       10.7142904321
  C         2.3292173930       -2.4968865109        9.3812707988
  C         1.7710729351       -1.7091840040        8.3430934815
  C         1.1785368202       -0.4728403259        8.7585313193
  C         1.1449761991       -0.0333213432       10.0880778199
  H         0.6054563851        0.8731201195       10.2854023266
  H         0.7970318906        0.2519909140        8.0205085974
  H         1.6827498703       -2.0363945032        7.3292682169
  H         2.7809472412       -3.4167998475        9.0661599669
  H         2.8587135896       -2.5115030728       11.4954016321
  C        10.1902957971        0.0784367196       14.7765951898
  C        11.2329172517        0.7929367122       15.4967927288
  C        12.3624949048        1.3937929111       14.8075811099
  C        13.4415426601        2.1285302931       15.4902302663
  C        14.3909410269        2.7889526434       14.7967693890
  C        11.2347515846        1.0774551211       16.9820335765
  C        10.4603543068        2.2165261464       17.3168501472
  C        10.3058287170        2.5808873769       18.6720408877
  C        11.1840618242        2.0332067014       19.6531420810
  C        12.0766771222        1.0336258998       19.2880137414
  C        12.0728202564        0.4808895192       17.9879149993
  H        13.6794253709        1.9971952392       16.5490749338
  H        15.1234759514        3.4616000383       15.2072132647
  H         9.8428976363        2.7227081755       16.5724048986
  H         9.5659139374        3.3352433731       18.9827533450
  H        11.1852221916        2.2697686074       20.7451336945
  H        12.7453263179        0.6209482070       20.1057831319
  H        12.5229085442       -0.4808530474       17.7227472985
  C        10.2717503494        0.2098791546       13.2317900550
  C         9.2317411074       -0.5316800232       12.4615474703
  C         8.0815543412       -1.0796317684       13.0024573991
  C         8.0794619799       -1.1951800255       14.4685417227
  C         9.1646224781       -0.7146757867       15.3055378674
  C        12.3636232738        1.4534318549       13.3656349064
  C        11.2548511447        0.9595614686       12.6144399076
  C        11.1082790616        1.4082852139       11.1768435603
  C        10.2048718419        2.4497705928       10.9370649711
  C        10.0930345886        2.8199930167        9.5962927148
  C        10.8158958683        2.2727035869        8.5550800238
  C        11.8337019149        1.3185953794        8.8168388543
  C        11.9636691100        0.8785941661       10.1390139829
  H        12.6424083323        0.0904403411       10.4583190804
  H        12.4221016504        0.9097363392        7.9791685439
  H        10.5092704360        2.6799031221        7.5427301797
  H         9.3018707577        3.4760662739        9.2653822191
  H         9.5280189425        2.8486552950       11.7281804249
  C        13.4944732077        2.0712712559       12.6737817658
  C        14.4998662213        2.7132730408       13.3897871458
  H        15.3078848879        3.1929131160       12.9367325454
  H        13.5519454790        1.9358352951       11.6234574761
  C         9.0443042835       -1.0823515584       16.7257261634
  C         9.5827817611       -2.2411677329       17.2560853911
  C         9.3921784705       -2.5306509812       18.5902886066
  C         8.8036410745       -1.5879994209       19.4344781783
  C         8.3389942547       -0.3861817571       18.9192622632
  C         8.3760182110       -0.1257766135       17.5563322215
  H         8.0064991350        0.7988015977       17.1690184628
  H         7.8771454606        0.3631072372       19.5789776439
  H         8.6553548220       -1.8076575442       20.4602065900
  H         9.9174245785       -3.4081733460       19.0036625713
  H        10.1306375955       -2.9312493772       16.5975976786
  C         6.9435328809       -1.7832736899       15.0675089598
  C         5.8153825860       -1.9170726432       14.3344776496
  C         5.7868823400       -1.7054719343       12.9256607184
  C         6.9036471395       -1.3809742807       12.2598271529
  H         7.0355012376       -1.4403173024       11.2160817460
  H         4.8465902349       -1.9401126925       12.4720431907
  H         4.8893935010       -2.3300469560       14.8214664923
  H         7.0286621094       -2.0719709647       16.0874059525
  C         9.3881637304       -0.8136571699       10.9522474897
  C        10.2656034337       -1.8866303280       10.5326995499
  C        10.1800838925       -2.3543826858        9.2003433973
  C         9.2652702364       -1.7758323475        8.2858274972
  C         8.3634986497       -0.8220020955        8.6639442734
  C         8.4639478334       -0.3069732947        9.9946116961
  H         7.8290471215        0.5505945267       10.2293475691
  H         7.5844745409       -0.5262983428        7.9313375228
  H         9.2863161094       -2.0401663111        7.2169737687
  H        10.9044662967       -3.1136441703        8.8536540347
  H        10.9863586408       -2.3683070179       11.2746406853
