140

  C        12.0278905061        5.7867474791        0.3903496461
  C        10.9494656423        6.4855620045        1.0630258807
  C         9.8703729177        7.0485522054        0.3551249731
  C         8.6924057606        7.5445569392        1.0085805731
  C         7.7905054183        8.2702893320        0.3488655345
  C        11.0400319629        6.8437144371        2.5069108914
  C        11.7692329114        7.9608078557        2.7481603259
  C        12.0548024334        8.3356063108        4.1348222156
  C        11.2914933836        7.7053367540        5.1621906128
  C        10.5487558008        6.5872365928        4.9371916316
  C        10.4108633655        6.1193356780        3.6098591189
  H         8.6439540467        7.2847354412        2.0817009580
  H         6.8774302235        8.5187547934        0.8253386404
  H        12.2755828241        8.4787003724        1.9415938680
  H        12.8052941623        9.1399093092        4.3188531985
  H        11.4387453317        7.9710543021        6.2407203385
  H        10.1081863554        6.0346757215        5.7323903375
  H         9.8924840833        5.1366490672        3.4501248450
  C        12.1170478965        5.9265679016       -1.1127734894
  C        13.1214940752        5.2125473982       -1.7766601988
  C        14.2674781111        4.7891496259       -1.0530752319
  C        14.2747958191        4.8616328885        0.3901265878
  C        13.1292302433        5.1745805041        1.1133310096
  C        10.0331165338        7.3155100091       -1.0617000188
  C        11.1550944882        6.7125991433       -1.7275881578
  C        11.1926186874        7.1089839942       -3.1875579254
  C        11.9898512715        8.1518202319       -3.5542184642
  C        12.0802060630        8.6342265377       -4.8665439157
  C        11.1414784400        8.0788918238       -5.8139873144
  C        10.2492804884        7.0742842886       -5.3882218015
  C        10.2590253936        6.6637359040       -4.0532996441
  H         9.5851672542        5.8653763127       -3.8220919990
  H         9.4941422431        6.6720624546       -6.0021925173
  H        11.2715970659        8.3197750080       -6.9196292709
  H        12.8348646505        9.3718292725       -5.1224377858
  H        12.6914777690        8.5509588815       -2.8386440840
  C         9.0413274596        8.1016568293       -1.7399619764
  C         7.9386122334        8.6131583406       -1.0418482620
  H         7.1026321212        9.1801456524       -1.4477345806
  H         9.1696691055        8.3325097667       -2.8157610925
  C        13.0158505533        4.5964880202        2.5662503629
  C        12.2473886484        3.4011821198        2.6917312627
  C        12.2031283297        2.7354399655        3.8728269630
  C        12.8385158604        3.1828164905        4.9778280966
  C        13.6934544287        4.3561042936        4.8855267108
  C        13.6955869731        5.0887410278        3.6969230987
  H        14.1524343435        6.0630443997        3.6000630757
  H        14.1547787671        4.6785112679        5.7845327798
  H        12.7989786729        2.7671211624        5.9848297670
  H        11.4240189448        1.9643375668        3.8631381547
  H        11.7819642350        3.1163287519        1.7894628259
  C        15.4447499730        4.3480279678        1.0564723468
  C        16.4856004734        3.7305034121        0.3970265579
  C        16.4552224603        3.7278146376       -1.0281024282
  C        15.3709397441        4.2554800123       -1.6979850704
  H        15.4233869578        4.3589434064       -2.7772228903
  H        17.2794605172        3.2923822157       -1.5613877531
  H        17.2708990589        3.2834893691        0.9906481621
  H        15.4946284095        4.3715537474        2.0873361487
  C        13.0718152152        5.0054043586       -3.2197906572
  C        12.5123595249        3.8264290542       -3.8028627678
  C        12.6523467522        3.5310491599       -5.1795223531
  C        13.3763266203        4.3966808758       -6.0095838562
  C        14.0589601888        5.4456921906       -5.3657660227
  C        13.8899191522        5.7881123530       -4.0502840661
  H        14.2823901196        6.7280292502       -3.6254523228
  H        14.6548542568        6.1125490361       -6.0294385115
  H        13.3756976331        4.3315664022       -7.0758105470
  H        12.1419247547        2.6513720294       -5.5818566682
  H        11.9774801746        3.1527928736       -3.2393172995
  C        19.3355884984        6.1082802785        0.5287344058
  C        18.1618434978        6.7011024879        1.2376489487
  C        17.0379456292        7.1897919498        0.5706919183
  C        15.8674959079        7.6976726546        1.2003846391
  C        14.7605872102        8.2249190391        0.5375549080
  C        18.2252941594        6.8807800515        2.7367060989
  C        19.0015023198        7.9459298468        3.2958223572
  C        18.8792812062        8.2750057292        4.7374547812
  C        17.8900431208        7.6445702837        5.5135792097
  C        17.0921846196        6.6729260619        4.9290748635
  C        17.2701384004        6.2972187584        3.5567968263
  H        15.9386166331        7.7067390328        2.2916743764
  H        13.9164859285        8.5695031167        1.1251790864
  H        19.6790337972        8.5315018796        2.6534853669
  H        19.4915741413        9.0384064336        5.1782578556
  H        17.6104789920        7.9756756595        6.4968954561
  H        16.4062186372        6.0918291488        5.5639355422
  H        16.6772299290        5.4669701071        3.2108971235
  C        19.2825846800        6.0466011716       -0.9706195890
  C        20.3230040427        5.3821637752       -1.7015577505
  C        21.4256409955        4.8307892102       -0.9380277535
  C        21.4149038309        4.8057023173        0.5012868186
  C        20.3805192835        5.4545295255        1.2453177883
  C        17.0577420591        7.2683599140       -0.8755549160
  C        18.1342567109        6.6748149414       -1.6390325989
  C        18.2749207326        7.0709746793       -3.0720498021
  C        19.2271606425        8.0397390615       -3.3106111961
  C        19.5783253898        8.4999562591       -4.5894071742
  C        18.8441266527        7.9675760473       -5.6881049122
  C        17.6950398616        7.1838523202       -5.4434810848
  C        17.4372027740        6.7037856918       -4.1379878351
  H        16.6368770807        6.0719980642       -3.9154217373
  H        17.0069584482        6.9259062975       -6.2771177528
  H        19.0758420694        8.2431603047       -6.7183534203
  H        20.3727764747        9.2487664702       -4.5863660121
  H        19.8336424731        8.3830711911       -2.4298921693
  C        16.0352261329        8.0559923331       -1.5567417080
  C        14.9010977363        8.4696257910       -0.8613404259
  H        14.0970687528        9.0056778428       -1.3983657428
  H        16.1739359512        8.2672915325       -2.6585627492
  C        20.2797792696        5.0043161519        2.7342087417
  C        19.5103732846        3.8664386604        3.1707932670
  C        19.7246924849        3.2590087239        4.3436207564
  C        20.5844988140        3.8256919588        5.2692132703
  C        21.3749850905        4.9661715788        4.9455633893
  C        21.2189544002        5.4946776515        3.6807359852
  H        21.6904853907        6.4188687923        3.3903174373
  H        22.1425814764        5.3556032061        5.5355913378
  H        20.5894986035        3.3857455931        6.2557663885
  H        19.1433574012        2.3705632746        4.6560300288
  H        18.7923636588        3.4480564575        2.4796948153
  C        22.4594830001        4.0406620840        1.1488972190
  C        23.4547813900        3.4902444553        0.3953933555
  C        23.5360642335        3.6289902875       -0.9954410828
  C        22.5005965930        4.2096714017       -1.6291153568
  H        22.4491449906        4.1940823716       -2.7346178497
  H        24.3680849081        3.1742412985       -1.6169283268
  H        24.2569646155        2.9378945433        0.9163228560
  H        22.3002740686        3.8963424106        2.1902785227
  C        20.2304873092        4.9690596979       -3.2015781758
  C        19.3065367222        3.9626460059       -3.7106827852
  C        19.3685548603        3.5392259722       -5.0649215254
  C        20.2488787162        4.1296398724       -5.9679592962
  C        21.0761395203        5.1620108955       -5.5287654744
  C        21.0981628267        5.5556687105       -4.1978985651
  H        21.6744079345        6.4246995346       -3.9704728957
  H        21.7850072315        5.5685657348       -6.1982312299
  H        20.3781829371        3.7148551422       -6.9582732506
  H        18.7147789329        2.6800612175       -5.4117057990
  H        18.6406051631        3.6334006956       -2.9783057901
