140

  C        10.5956570751        7.2839013077        1.1886345300
  C         9.6560873442        8.0994977514        1.8701255884
  C         8.6023104247        8.7210999931        1.0986825671
  C         7.6927285280        9.5996918631        1.7952570534
  C         6.7666788735       10.3288220504        1.0190312177
  C         9.8658260486        8.5955290421        3.3002446343
  C        10.9387657616        9.4103724791        3.7127249348
  C        10.9586498773        9.8475279735        5.0404630579
  C         9.9789693056        9.6000827165        5.9566105555
  C         8.8217844662        8.8166633222        5.5239600908
  C         8.8452853116        8.3325017884        4.2232750848
  H         7.8132571215        9.9411238332        2.8386546320
  H         6.0491443647       11.0298532781        1.4685085079
  H        11.7040923801        9.5769526683        2.9790372864
  H        11.7661656520       10.5314212736        5.2477388846
  H        10.0014823767       10.0056761604        6.9406043952
  H         7.7881034627        8.6924001067        6.0214519496
  H         7.9872836480        7.6399777743        3.9355543161
  C        10.5988808784        7.1047276338       -0.2996757291
  C        11.7119543249        6.4405063397       -0.9270054135
  C        12.8165345086        6.0408944826       -0.0984900896
  C        12.7829564418        6.1409700967        1.3029239266
  C        11.6300418345        6.6463806418        1.9360765703
  C         8.5797836232        8.5900720357       -0.3041980648
  C         9.5636757100        7.8013612491       -0.9895584548
  C         9.7403706715        8.1552072833       -2.4485745578
  C        10.7273807822        9.1570675854       -2.6867635294
  C        10.8971321075        9.7683216295       -3.9181528512
  C        10.1897313738        9.1897986842       -5.0061924698
  C         9.1380107197        8.2913614640       -4.7702103854
  C         8.9339503696        7.7350667769       -3.4927692121
  H         8.1172449326        7.0273219946       -3.2650928444
  H         8.4338245267        7.9829555048       -5.5908757846
  H        10.2915411604        9.5244968621       -5.9938290470
  H        11.7623704571       10.4746663542       -4.0985265569
  H        11.3648272040        9.4008463852       -1.8454230842
  C         7.6095900215        9.4397858589       -0.9981516325
  C         6.6888112775       10.2155714355       -0.3750475986
  H         6.1154825855       10.9890502357       -0.9926938868
  H         7.5711984777        9.3396417344       -2.0691489848
  C        11.4889554099        6.3541496002        3.4072480084
  C        10.5083957605        5.4109557267        3.9039785271
  C        10.5992381150        4.9151513974        5.2645583826
  C        11.5940200304        5.4182033612        6.1111947554
  C        12.5244700534        6.3219295858        5.6179537285
  C        12.4518050243        6.8217585194        4.2946887394
  H        13.0743071205        7.5824003360        3.8291686397
  H        13.2991061306        6.7094927413        6.3157983610
  H        11.6158268259        5.0081961029        7.1491460876
  H         9.8487861605        4.2231630108        5.6051201668
  H         9.7931890939        5.0125698556        3.2036540897
  C        13.7971576520        5.5227377983        2.0886160829
  C        14.9392120242        5.0792956636        1.4920238705
  C        15.0390838053        5.0930088716        0.0843078227
  C        14.0334012674        5.4824307420       -0.7345301791
  H        14.0590467428        5.3759257195       -1.7953624319
  H        15.9587171172        4.7029372767       -0.3613481558
  H        15.6967247565        4.5844537493        2.1019957712
  H        13.8775391794        5.5357380555        3.1616998548
  C        11.6821681292        5.9490000476       -2.3188068976
  C        10.9453959338        4.7706898055       -2.6935821591
  C        10.9306019931        4.4445817451       -4.0941582224
  C        11.6396682889        5.1804746421       -5.0129400080
  C        12.4709156556        6.2359861563       -4.6126890233
  C        12.3615085701        6.6258900163       -3.2959071057
  H        12.8528412464        7.5435958179       -3.0217280174
  H        13.1462223298        6.8464010347       -5.2692943008
  H        11.6918859623        4.9388360267       -6.0891611957
  H        10.3484896868        3.5896584094       -4.4948652843
  H        10.3542786487        4.1960209195       -1.9916902836
  C        17.8839626497        7.2421053529        1.3031780773
  C        16.7987407253        7.9969919911        1.9905288796
  C        15.7412962717        8.5774995648        1.2236142492
  C        14.7070772305        9.4093256104        1.8437670835
  C        13.7768618296       10.0850293700        1.0615411662
  C        16.8922544974        8.4672805712        3.3562086025
  C        17.6819263502        9.6048792384        3.7129004911
  C        17.7340955079       10.1146915701        5.0590493042
  C        16.8848978169        9.4798535858        6.0143992472
  C        16.0389517243        8.4224829536        5.5934446783
  C        16.0716421156        7.8746195693        4.2976366757
  H        14.7695106214        9.5123659628        2.9137242020
  H        12.9745947680       10.5638019629        1.5864996687
  H        18.2239976582       10.0801190995        2.8444060855
  H        18.3964814443       10.9724343603        5.2683545768
  H        16.7990424666        9.8322511711        7.0143333167
  H        15.3721497690        7.8922924882        6.2540425545
  H        15.4858548037        6.9946600169        4.0063651702
  C        17.8598024353        7.1046635927       -0.1990247612
  C        19.0645898605        6.4938811739       -0.7834448744
  C        20.1174347891        6.0423486834       -0.0067431428
  C        20.0771059549        6.1386765469        1.4015499978
  C        18.9285710852        6.5942586381        2.0594695587
  C        15.8034049421        8.5201823963       -0.2812977429
  C        16.8652061229        7.8487673784       -0.8859861114
  C        17.0423471689        8.1348106748       -2.3558786078
  C        17.7556095850        9.3080925811       -2.7126583174
  C        17.6896924120        9.8533225560       -3.9734159092
  C        16.8055525987        9.3564510356       -4.9307024529
  C        16.0996436662        8.1759155174       -4.5468644535
  C        16.2288369890        7.5339762132       -3.3047587162
  H        15.5678259609        6.6962120616       -3.0496830247
  H        15.3270495042        7.8261923351       -5.2190605036
  H        16.7032994659        9.8680668820       -5.8336497541
  H        18.0829704258       10.8960227565       -4.1603507575
  H        18.2817182925        9.8123437715       -1.9205812700
  C        14.8428717331        9.3322119843       -1.0445582256
  C        13.8691678936       10.0220558753       -0.3512109201
  H        13.1383027117       10.5733225465       -0.9177753511
  H        14.9275822916        9.3459806460       -2.1423981606
  C        18.8668042581        6.3312150982        3.5258551578
  C        17.9108988185        5.3394212351        4.0130436940
  C        17.8728613825        5.1723824765        5.3784394633
  C        18.7848906389        5.7517512167        6.2496357449
  C        19.7505086955        6.6041767020        5.8103236817
  C        19.7259605269        7.0153005948        4.4762277051
  H        20.4133009030        7.7045946346        4.0696782392
  H        20.3987314049        7.1527612668        6.4871778446
  H        18.6991104784        5.4816717542        7.2818312946
  H        17.1036449520        4.5283825854        5.7421415339
  H        17.3254003905        4.6421425851        3.4444197535
  C        21.2015723571        5.6780830861        2.2121972794
  C        22.3028423332        5.1266978134        1.5956936025
  C        22.3095833351        4.9828799981        0.2302923146
  C        21.2191025894        5.4383666426       -0.5426150813
  H        21.2674773432        5.3157552555       -1.6051375097
  H        23.1413564390        4.4211453787       -0.1896587710
  H        23.1524255423        4.8091198560        2.1810825377
  H        21.2422829465        5.8693199024        3.2751654009
  C        19.1287526416        6.2133558461       -2.3592422704
  C        18.3506473551        5.1643003201       -2.8049295160
  C        18.2810710947        4.7783327571       -4.2114776324
  C        19.1803875517        5.3913019311       -5.1335432628
  C        20.1048706242        6.3531200320       -4.6371334329
  C        20.0900457158        6.7040732521       -3.2782861733
  H        20.7927080890        7.4700766910       -2.8840807061
  H        20.7700295386        6.8809570057       -5.3451965780
  H        19.1182691046        5.2035689920       -6.1947134189
  H        17.5645226093        3.9931367683       -4.4010991619
  H        17.6706244167        4.6765526247       -2.1047582276
