140

  C         3.4613150680        0.1706314070       14.1939552828
  C         4.4799856692        0.8281838737       15.0013822163
  C         5.5134420525        1.4719016046       14.3038210549
  C         6.5357434098        2.0640279005       15.0258388840
  C         7.5739154185        2.7174425781       14.4531222382
  C         4.3212585103        1.2228003923       16.4512732405
  C         3.5172678713        2.3538307620       16.8378644649
  C         3.4057778615        2.7090143558       18.1834563086
  C         4.1845198137        2.0725068772       19.1563798365
  C         5.0760160875        1.0746616382       18.8073762726
  C         5.0895542207        0.5932400895       17.4672188193
  H         6.3972079488        2.0992004978       16.1129368474
  H         8.2008913315        3.3045268295       15.0754344088
  H         2.9089543978        2.8140084667       16.0729308706
  H         2.7969076284        3.4988400082       18.5775023761
  H         4.2277055240        2.5020196241       20.1598606904
  H         5.6529185393        0.4726447894       19.4984617944
  H         5.8396311721       -0.1425482732       17.2287928466
  C         3.5456196281        0.1486376126       12.7853046551
  C         2.5209510785       -0.6155327185       12.0915450503
  C         1.3723427679       -1.1944530944       12.6909599143
  C         1.3116874677       -1.1213276649       14.1276565126
  C         2.4038599765       -0.5484152817       14.8282434553
  C         5.6475525075        1.4386967857       12.8432793966
  C         4.5591156490        0.8946525563       12.1379122841
  C         4.4682667730        1.2593910856       10.7061845024
  C         3.5404293776        2.1734929723       10.2618497298
  C         3.3452459406        2.4665210804        8.9136353326
  C         4.2712241976        1.9245007849        7.9749724367
  C         5.3199371495        1.0991213889        8.4300549819
  C         5.2470818747        0.6959248954        9.7134363479
  H         6.1155630454        0.0828775443        9.9632610290
  H         5.9208618453        0.5972291062        7.6688415742
  H         4.2226218458        2.1572887899        6.9188355109
  H         2.5721838993        3.1688895105        8.6600537812
  H         3.0064421397        2.7137128262       11.0158391371
  C         6.7823407557        2.0843710081       12.2329157900
  C         7.7289153670        2.5998205826       13.0579145042
  H         8.5207535320        3.1722325164       12.5872001349
  H         6.8567672040        2.1034764573       11.1655277496
  C         2.4225494098       -0.8588120486       16.2671303743
  C         3.0417954229       -2.0295009406       16.6955654727
  C         3.0944587408       -2.4198731000       18.0566451871
  C         2.3029596225       -1.7634513968       18.9821146978
  C         1.5228451129       -0.6062440401       18.5990185644
  C         1.6376462014       -0.1616959036       17.2379347561
  H         0.9016564440        0.6244958224       16.9118867862
  H         0.7765209783       -0.2118329989       19.2615996368
  H         2.2546850759       -2.0820017142       20.0718840825
  H         3.7762150297       -3.2319364166       18.2482675512
  H         3.5582125716       -2.6750270089       15.9864010021
  C         0.2859499433       -1.8445888144       14.7826204718
  C        -0.6222557111       -2.6059661236       14.1042462453
  C        -0.5828826794       -2.5609243871       12.7057472476
  C         0.3698453400       -1.8941348112       11.9431020813
  H         0.4354183030       -1.8377990951       10.8462399721
  H        -1.3871232619       -2.9835034422       12.1087391314
  H        -1.4278857094       -3.1802412986       14.5442918763
  H         0.2332267509       -1.8267096503       15.8484108026
  C         2.8190657596       -0.9931191315       10.6640993018
  C         3.8678188802       -1.8664693027       10.2968003709
  C         4.0971001797       -2.2807207204        8.9744335354
  C         3.2182803057       -1.8420429315        7.9646315559
  C         2.1130054421       -1.0519597369        8.3222173165
  C         1.9299125840       -0.6173525864        9.6710221714
  H         1.0622730193       -0.0059968269        9.7650667099
  H         1.3251802582       -0.7061747938        7.6300910995
  H         3.4707702267       -2.1336467285        6.9363615553
  H         4.9694241069       -2.9273226706        8.7894286293
  H         4.5531268648       -2.2511204978       11.0306599404
  C        10.5387335679        0.0568171389       14.3903393487
  C        11.5775572775        0.7972696873       15.1103939079
  C        12.7874237997        1.1810696791       14.4039204106
  C        13.8307109013        1.9189768649       14.9908634773
  C        14.9812412765        2.4177301538       14.3762620627
  C        11.5138033633        1.1717067206       16.5338436644
  C        10.6583508549        2.1978615735       16.8921215085
  C        10.6282614154        2.5950796662       18.2223309911
  C        11.4397267558        1.8940097552       19.2233555019
  C        12.2977317908        0.8738144221       18.8203110489
  C        12.3532882255        0.5394412563       17.4727455963
  H        13.7211739649        2.0953674450       16.0857058295
  H        15.7062424860        3.0131900055       14.9908016946
  H        10.0128227187        2.5907116834       16.1323129878
  H         9.9745677226        3.3875497459       18.5134548405
  H        11.4659931192        2.1289677960       20.2864984877
  H        12.8080033369        0.3032687604       19.6337803802
  H        13.0358652405       -0.2731135615       17.1803868218
  C        10.6113376924       -0.0317804293       12.9615286820
  C         9.6326324959       -0.6299797594       12.2358767277
  C         8.4658346635       -1.1807772726       12.8940719430
  C         8.4154056214       -1.1131224179       14.3473828715
  C         9.4850042661       -0.6510580679       15.0818385191
  C        12.9244642032        1.0792488916       12.9528308014
  C        11.7809201128        0.5220176314       12.2851847150
  C        11.5000043014        1.0696688152       10.9518710023
  C        10.5762984461        2.1353261592       10.9658640994
  C        10.2940896263        2.8746162372        9.8584311943
  C        10.9626865895        2.6512915848        8.6521603768
  C        11.9123133615        1.5660653236        8.5551211202
  C        12.1727392636        0.8352602918        9.7163399544
  H        12.8025272107       -0.0873558455        9.6703791465
  H        12.3388384670        1.2660519694        7.5910966909
  H        10.8241564936        3.3563799405        7.8576361778
  H         9.5318773280        3.6972308818        9.8006855113
  H        10.1214563744        2.4278156532       11.9372386278
  C        14.0925597828        1.6555588876       12.3084881497
  C        15.1363707500        2.2892559655       12.9500257229
  H        15.9109567280        2.8205885591       12.3996227015
  H        14.1367953949        1.6068770748       11.2391375558
  C         9.5207610716       -0.9853310491       16.5290023622
  C        10.3051545031       -2.0543757370       16.9686807531
  C        10.2539680643       -2.5334979603       18.3218387692
  C         9.3881913239       -1.8754993814       19.1666082975
  C         8.6287894354       -0.8178365130       18.7336768697
  C         8.6243775159       -0.3584873005       17.4123275997
  H         8.0876991446        0.5115876725       17.0527928446
  H         7.9472346584       -0.3607411093       19.4674769668
  H         9.3350867224       -2.1709959159       20.2234203528
  H        10.8128573884       -3.3884891217       18.6350216751
  H        10.9731901806       -2.5177144520       16.2210005496
  C         7.3003410541       -1.6507201085       15.0576144285
  C         6.3401656914       -2.3379426551       14.4147389753
  C         6.5102949361       -2.5429344957       13.0143263969
  C         7.4635000086       -1.9719887080       12.2441674356
  H         7.5307162224       -2.2517449876       11.2353825013
  H         5.7441074804       -3.1637148514       12.6130113264
  H         5.4058359664       -2.7230010564       14.8179600554
  H         7.1654998650       -1.4623091684       16.1141388718
  C         9.7572784897       -0.9853267341       10.8140924403
  C        10.6155886784       -2.0290940734       10.4504571497
  C        10.6639722660       -2.4672702320        9.1271079206
  C         9.9318741825       -1.8136196488        8.1103127342
  C         9.0808416181       -0.7383951189        8.5207752282
  C         8.9792291585       -0.3369280095        9.8246933767
  H         8.4234803168        0.5590310055       10.0923319850
  H         8.4724725407       -0.1577052997        7.8654189801
  H        10.1115000727       -2.0812263214        7.0822234289
  H        11.3751882926       -3.2294829565        8.8018343096
  H        11.2669724569       -2.5616287057       11.1142785047
