140

  C        10.3642800034        7.3518089033        1.2986763782
  C         9.3372890495        7.9852134616        2.0613536329
  C         8.1862479842        8.5042332479        1.4046824073
  C         7.0389329237        9.0451009582        2.0990230428
  C         6.0113049345        9.7142223512        1.3808004053
  C         9.3816047823        8.2925374651        3.5409248671
  C        10.1116093077        9.4516515989        3.9382631515
  C        10.1003278444        9.9112627332        5.2944149514
  C         9.2560904260        9.3240769899        6.2062097864
  C         8.5406349120        8.1498552474        5.8544415713
  C         8.5785606406        7.6932093058        4.5349074463
  H         7.0637031541        9.1484099974        3.1632835526
  H         5.2433181262       10.1844662269        1.9458222150
  H        10.7813590161        9.9520567515        3.1760159455
  H        10.7638407160       10.7764151410        5.5830095551
  H         9.2064118904        9.6765395216        7.2677824321
  H         7.9355265673        7.6482265328        6.5949501091
  H         8.1524508682        6.7302685958        4.2462219213
  C        10.3950451244        7.4147929404       -0.1291444224
  C        11.4540888327        6.6537192691       -0.7946592816
  C        12.5944443444        6.1866885695       -0.0794210960
  C        12.5195992961        6.1092880071        1.3954070286
  C        11.3779145149        6.6116439074        2.0210106387
  C         8.1763240826        8.6471896530       -0.0351274839
  C         9.2428413725        8.0101701621       -0.7399096522
  C         9.2828768571        8.3263303119       -2.3055899647
  C        10.0968545096        9.3708809308       -2.6989300477
  C        10.2562142741        9.6771872085       -4.0224389473
  C         9.5462545328        8.9667071400       -5.0307584661
  C         8.6120149367        8.0356653789       -4.6424624579
  C         8.5292690589        7.6865211255       -3.2961636499
  H         7.7869088266        6.9077896313       -3.0717852751
  H         7.9490803309        7.4049588847       -5.3222263396
  H         9.6896803055        9.1758628312       -6.1076901958
  H        10.9680751136       10.4870543086       -4.2834661823
  H        10.7464459373        9.8298468457       -1.9693966039
  C         7.1945753844        9.3917225022       -0.6821859492
  C         6.1373028701        9.9586496262       -0.0593538757
  H         5.3406146004       10.2171317546       -0.7651858787
  H         7.3920912773        9.3078776038       -1.7669215131
  C        11.1981406438        6.2660531945        3.4518510686
  C        10.4506410177        5.1222592355        3.5770376027
  C        10.4592938629        4.4547800561        4.7880102787
  C        11.1463572859        4.8860623514        5.9055743416
  C        11.9069607424        6.0851514650        5.7810440743
  C        12.0367740720        6.7354174873        4.5257584055
  H        12.7061646026        7.5799771421        4.2600557096
  H        12.4717191903        6.3793528800        6.6510967494
  H        11.0913190392        4.3599515319        6.8765199814
  H         9.8826050949        3.5298385708        4.8982958842
  H         9.8690771273        4.6871447179        2.7383089132
  C        13.5445941806        5.3609923357        2.0718067023
  C        14.6825958663        4.9557728464        1.4462607866
  C        14.8634789686        5.1714940591       -0.0023182797
  C        13.7411280339        5.5980519483       -0.6830467987
  H        13.6700997382        5.5146061475       -1.7839663493
  H        15.7386094399        4.8526758328       -0.5248766025
  H        15.4222136850        4.3877694689        1.9769654848
  H        13.4361578455        5.3002900509        3.1292749704
  C        11.5056744720        6.3857150084       -2.2610666320
  C        10.6017809781        5.4497837006       -2.7375060025
  C        10.6399575892        5.0611580112       -4.0674720642
  C        11.5673642124        5.6634096167       -4.9969726320
  C        12.4180597678        6.6679674628       -4.4947040148
  C        12.4257000947        7.0168546267       -3.1360014625
  H        12.9320793872        7.9672838351       -2.8349270974
  H        13.0748186159        7.2311600888       -5.1553564656
  H        11.6199712290        5.3808600597       -6.0699117956
  H        10.0413719769        4.1840469132       -4.4181727784
  H         9.7136623680        5.0243675137       -2.2503770254
  C        17.8272102412        7.3210565378        0.9952714360
  C        16.8046119677        7.9731841063        1.7223419468
  C        15.6766052774        8.4721408004        1.0699091328
  C        14.5412704490        8.8737616591        1.8713270455
  C        13.3133791736        9.3613922165        1.3419550138
  C        16.8560369187        8.2210315478        3.2476320533
  C        17.3726348731        9.4668217975        3.6104223118
  C        17.2989528434        9.9725583704        4.9220739883
  C        16.8652671971        9.1305863570        5.9380985870
  C        16.2070426329        7.8682351747        5.5957159954
  C        16.2625733142        7.4403403503        4.2657698510
  H        14.6138156150        8.7831231416        2.9755035141
  H        12.4160001269        9.5351480857        1.9340919448
  H        17.7707684574       10.1215213221        2.8643446027
  H        17.6007693659       10.9809893442        5.1519532177
  H        16.9286551440        9.3708737030        6.9989129789
  H        15.6853995993        7.2959274423        6.3368746736
  H        15.8392587265        6.4998369556        3.9789790275
  C        17.8016053591        7.5151840414       -0.4597345635
  C        18.7601298756        6.7965427491       -1.2741174019
  C        19.9020501692        6.2265936922       -0.6142832851
  C        19.9427637281        6.1019002010        0.8595482590
  C        18.8515852784        6.5064702372        1.5844160264
  C        15.6241665401        8.6935210723       -0.3154175386
  C        16.7310716912        8.2659460086       -1.0199978518
  C        16.7240055070        8.5679122841       -2.4930336538
  C        17.5618473864        9.5550574911       -2.9783474505
  C        17.5436590565        9.9166654032       -4.3388555862
  C        16.8053177729        9.2212472323       -5.2986059537
  C        15.9757827900        8.1937269490       -4.8194803512
  C        15.9323849564        7.9098189228       -3.4560726331
  H        15.1997972302        7.1286319409       -3.1785086789
  H        15.3191367100        7.6455428471       -5.4474322716
  H        16.9010548196        9.3638479189       -6.3583098458
  H        18.2743913292       10.6464454661       -4.6354667553
  H        18.3272817300       10.0742274061       -2.3713643400
  C        14.4686461536        9.3118187800       -0.8259258999
  C        13.3733039624        9.6339458664       -0.0469629843
  H        12.6362652359       10.2250536190       -0.5802707674
  H        14.4759395553        9.5268830580       -1.9050957251
  C        18.8013877861        6.0602720189        3.0699782381
  C        18.1977599942        4.8555290180        3.4495740196
  C        18.3491171986        4.2835915023        4.7750931193
  C        18.9676686093        5.0463598071        5.7531999510
  C        19.5953197416        6.2913558271        5.4669833429
  C        19.5196019741        6.7189118805        4.0994228032
  H        20.0081980505        7.6391749625        3.8122682501
  H        19.9820406188        6.9542705268        6.2539145205
  H        19.0240222829        4.7665416759        6.7848258026
  H        17.8230540878        3.3799389094        5.0619344151
  H        17.5151848539        4.3607398913        2.7400983837
  C        21.0023612357        5.3225953225        1.4418291543
  C        21.8494598061        4.6428706692        0.6350896546
  C        21.6908004148        4.5929022363       -0.7657512697
  C        20.8508540399        5.4285499529       -1.3571563870
  H        20.7941439711        5.2700829817       -2.4319403985
  H        22.2593631220        3.8729597423       -1.3050898662
  H        22.6182611285        4.0078701478        1.0054042576
  H        21.0451256142        5.2464676043        2.5321182631
  C        18.5782260213        6.4793349908       -2.6963311842
  C        17.6423889782        5.4629616729       -3.1505062749
  C        17.7025053250        4.9528511279       -4.4860881374
  C        18.6768134613        5.4577646526       -5.3788906337
  C        19.5324714675        6.5306738304       -4.9860713582
  C        19.5114803924        6.9700954328       -3.6364950803
  H        20.2234428395        7.7808026957       -3.3177665841
  H        20.2614913907        6.8914265743       -5.6814840705
  H        18.8064035626        5.0748053070       -6.3611314613
  H        16.9982173073        4.1221740945       -4.7511960405
  H        16.8315013731        5.1670543628       -2.5140755755
