140

  C        10.8244455174        7.1292473676        1.6485847146
  C         9.7950472380        7.8436952923        2.3921276766
  C         8.7816297778        8.5049022840        1.7207534723
  C         7.8960431757        9.3979898622        2.3287578899
  C         6.9876957989       10.1928082725        1.6504069700
  C        10.0350817607        8.1404384471        3.8436325048
  C        10.7995728989        9.2747985904        4.1501956995
  C        10.7883585541        9.7960800751        5.4642496194
  C         9.9970460819        9.2529640791        6.4688475733
  C         9.2380200358        8.1309681883        6.2690929663
  C         9.2214624944        7.5466895056        4.9624756650
  H         7.9532680972        9.4853357042        3.4341355099
  H         6.4491243228       10.9139731185        2.1973981531
  H        11.3693129054        9.8846286847        3.4630517104
  H        11.3601822294       10.6798271338        5.6088424100
  H         9.9257058145        9.7077440941        7.5106314123
  H         8.7178193427        7.6338300537        7.0712764499
  H         8.7121262090        6.6439527922        4.7113854956
  C        10.8487013376        7.2255795996        0.1735795402
  C        11.9475884757        6.6183029887       -0.5405457694
  C        13.0532744188        6.0292307184        0.2148003261
  C        13.0570522918        6.0177676200        1.6426103911
  C        11.9428075839        6.4707716456        2.3669566580
  C         8.7797708142        8.4804550915        0.1724372347
  C         9.7913441993        7.8433005127       -0.5272999237
  C        10.0209287541        8.3886349109       -1.9947238210
  C        10.9743559659        9.4644889104       -2.1845325669
  C        11.0610217857       10.1284926921       -3.3940674669
  C        10.2222657169        9.7676759699       -4.4529593446
  C         9.2481199122        8.8116971055       -4.2259344995
  C         9.1618850076        8.1016590433       -3.0160905982
  H         8.5245381407        7.2376021149       -3.0404008252
  H         8.5266876516        8.5776705607       -4.9977688547
  H        10.4124097718       10.0997117348       -5.4336915537
  H        11.8680278529       10.7326482613       -3.5851095360
  H        11.6963525754        9.6877839466       -1.3903291900
  C         7.7086569899        9.3178487090       -0.5005184551
  C         6.8532234649       10.1075794783        0.2590660692
  H         6.0469985992       10.6940044402       -0.2693202493
  H         7.4741205658        9.3869746079       -1.5940254734
  C        11.8126422729        6.1452664920        3.8896080879
  C        10.9096713707        5.1028626259        4.2704517407
  C        10.8718901017        4.6446820110        5.6203034145
  C        11.6281652098        5.2667455887        6.6329305979
  C        12.5560327766        6.2228268635        6.2131491590
  C        12.7119113461        6.6515686933        4.8712439792
  H        13.2231399285        7.5789365325        4.6049774855
  H        13.1980021324        6.6504192283        6.9701629976
  H        11.4220531567        5.0129146091        7.6692592213
  H        10.1597955272        3.8823535833        5.8745341120
  H        10.3594914751        4.5817155088        3.4671377516
  C        14.1879788195        5.3910395281        2.3240491087
  C        15.3218598184        4.9238225878        1.6374926512
  C        15.2423591301        4.8290685532        0.1874906910
  C        14.1376737604        5.4036869662       -0.4923232570
  H        14.0328433636        5.2429427653       -1.5515324040
  H        15.9705514020        4.2818518838       -0.3965366298
  H        16.1520626777        4.5046629146        2.2393544323
  H        14.1405303120        5.4266660467        3.4271390376
  C        11.9075431299        6.2306430031       -1.9593143068
  C        10.9268205485        5.2584289201       -2.3079802120
  C        10.9207060249        4.6957875993       -3.6011881850
  C        11.6619337998        5.2846219515       -4.6891095867
  C        12.5365816733        6.2991234784       -4.3933975319
  C        12.7219165045        6.7015059976       -3.0113075252
  H        13.4305916929        7.4932788018       -2.7955347006
  H        13.1474691909        6.7926981326       -5.0963351601
  H        11.4887908335        4.8561587899       -5.6887689421
  H        10.2592933089        3.8407401880       -3.8818938878
  H        10.2751275377        4.8143697413       -1.5191150605
  C        18.1411571149        7.3080641887        1.5669190779
  C        17.0822984656        7.9840506614        2.2757828133
  C        16.0163719123        8.6074809431        1.5475024566
  C        14.9612813683        9.2831802129        2.3543231064
  C        13.8540705209        9.7190959626        1.6254681383
  C        17.2046534059        8.3197059082        3.6717087561
  C        18.1692765815        9.3235545506        3.9832273241
  C        18.3171018239        9.7634869830        5.2904775597
  C        17.5501955783        9.2727565266        6.3097963162
  C        16.6834406297        8.2404586259        6.0178632864
  C        16.4465686384        7.7186543563        4.6977407787
  H        15.1000293985        9.5180909553        3.4195419713
  H        13.1285191615       10.3233088408        2.1657925918
  H        18.7638117093        9.7780093202        3.2124828900
  H        19.1562785632       10.3887972549        5.5056850517
  H        17.5881839322        9.5756102292        7.3431403457
  H        16.0905905753        7.7980165577        6.8280571514
  H        15.7687161195        6.8992245595        4.5128029878
  C        18.1519356835        7.4119360152        0.1161525218
  C        19.3193135443        6.8700739791       -0.6026669901
  C        20.3814206665        6.3842477960        0.1134436356
  C        20.3082966834        6.2295841186        1.5582788429
  C        19.2171843088        6.7405013338        2.2891583869
  C        15.9903113832        8.5466678836        0.1428901696
  C        17.0526026904        7.9938998031       -0.5616848817
  C        17.0959006182        8.2562285224       -2.0893055451
  C        17.9002057162        9.3410224090       -2.4904260988
  C        17.8955263352        9.9273007957       -3.7335764915
  C        16.9641432316        9.4891234844       -4.6934475738
  C        16.2260923003        8.3564450793       -4.3817951462
  C        16.2320014116        7.7028316793       -3.0930559762
  H        15.5314329183        6.9838535569       -2.8596910577
  H        15.5989164055        7.8791001786       -5.1574595513
  H        16.8202257006        9.9739090777       -5.6441268165
  H        18.6259045828       10.7534426701       -3.9313170267
  H        18.5756417869        9.7561416400       -1.7275620426
  C        14.8721665009        9.1788532558       -0.4863950467
  C        13.8038721365        9.7171869309        0.2252756517
  H        12.9807023750       10.0766915876       -0.3929861250
  H        14.9337457210        9.3335321152       -1.5671531619
  C        19.2078675328        6.3203259245        3.6640468229
  C        18.2986667922        5.3085234481        4.0608416486
  C        18.3864950222        4.8350348195        5.3688299742
  C        19.2278916892        5.4631520496        6.3273223141
  C        20.0287155846        6.5736404550        5.9501951582
  C        20.0472848378        6.9128156508        4.6329700399
  H        20.7528528814        7.6872754862        4.3504124711
  H        20.6919852188        7.0784110067        6.6946097367
  H        19.1452157140        5.2072766301        7.3700035961
  H        17.7729097222        3.9487078532        5.5984838992
  H        17.7163471355        4.8545844716        3.2258842643
  C        21.3292828207        5.3817386884        2.1901716701
  C        22.2738697258        4.7523393565        1.3968668183
  C        22.4526076252        5.0975487162        0.0414616653
  C        21.5278796508        5.8325987030       -0.6482691784
  H        21.8232679447        6.1488107361       -1.6373064157
  H        23.2608511380        4.5214471139       -0.5404454270
  H        22.8011270684        4.0380170760        1.9871439413
  H        21.3751984005        5.3075183515        3.3005100401
  C        19.3048887822        6.5393341338       -2.0453399917
  C        18.3507897760        5.5421991880       -2.4454668360
  C        18.2356498878        5.1722529517       -3.8017091752
  C        19.0730317903        5.6641563484       -4.7827330320
  C        20.0123873673        6.6373266213       -4.3787432413
  C        20.1639907777        7.0744897544       -3.0423931321
  H        20.9176064041        7.8599008939       -2.7832830337
  H        20.5535600401        7.1450466237       -5.1743089523
  H        18.9051644941        5.4317799399       -5.8046351068
  H        17.5121229781        4.4439790202       -4.0400906069
  H        17.5662422606        5.1113310937       -1.8218830084
