140

  C        11.5564812464        6.5271961966        0.6672567746
  C        10.5789119280        7.2225337778        1.4198884712
  C         9.5171790422        7.8299026457        0.7269137828
  C         8.5206471075        8.5626163773        1.4829740811
  C         7.5068532802        9.2173815400        0.8236592722
  C        10.8176387625        7.5143723717        2.9292150337
  C        11.7031168545        8.5630715705        3.2198232682
  C        11.6353114753        9.1690394048        4.4966026820
  C        10.7390162287        8.6869151626        5.4418008499
  C         9.9629132892        7.5412958587        5.2578265344
  C         9.9839154450        6.9968958372        3.9555578481
  H         8.4393968900        8.4514779133        2.5237136555
  H         6.8033200313        9.8502817811        1.3933120701
  H        12.4377925059        8.7993447452        2.4088273733
  H        12.3640391471        9.9917201906        4.7512493722
  H        10.7049656178        9.1331254873        6.4601390459
  H         9.2250991414        7.1883452393        5.9454688898
  H         9.3133755747        6.2306279076        3.6848847396
  C        11.5322512698        6.6330915880       -0.8150848927
  C        12.5323772492        5.9901205777       -1.6215670865
  C        13.7176266758        5.4172961006       -1.0301247349
  C        13.6735314361        5.1958041950        0.3894516397
  C        12.6388317222        5.7941063326        1.2272673443
  C         9.4328856826        7.9920223677       -0.6951440500
  C        10.5041317000        7.4223821172       -1.4215310706
  C        10.4847486648        7.8460911471       -2.8173445922
  C        11.0893104368        9.0774259238       -3.1560074284
  C        11.0620369307        9.4802335032       -4.5444703396
  C        10.3313261825        8.8165039749       -5.4789471164
  C         9.5923087998        7.6038821380       -5.0709978122
  C         9.6734612902        7.1596582041       -3.7807043879
  H         9.1803099210        6.2906397488       -3.3802969756
  H         8.9557185866        7.1203712119       -5.7705181375
  H        10.2834386672        9.0462731149       -6.4893665074
  H        11.6631421000       10.4020745909       -4.7729532592
  H        11.7083038197        9.6671624141       -2.4330529208
  C         8.3571049169        8.7339950283       -1.3277151084
  C         7.3576764012        9.2788383258       -0.5569928031
  H         6.5323484466        9.8198539230       -1.0220599918
  H         8.2805039403        8.8041561200       -2.4311714149
  C        12.6048583206        5.4515146096        2.6885915420
  C        11.7269112772        4.4458683498        3.1363973004
  C        11.6443634748        4.0603338549        4.4975874002
  C        12.5093148522        4.6702931385        5.4276582643
  C        13.3915596245        5.6663372356        4.9804869098
  C        13.5086535505        5.9646377931        3.6241543079
  H        14.3502446670        6.5730203147        3.2834246800
  H        14.1747581477        6.1194520996        5.5545731551
  H        12.5189301689        4.3505540334        6.4419282196
  H        10.9473330601        3.2750080312        4.7852163317
  H        11.0939930951        3.9186007312        2.4264976952
  C        14.7728733825        4.5485395193        1.0041851570
  C        15.8393383151        4.0428169676        0.3193854921
  C        15.8445817869        4.2493981467       -1.1101185159
  C        14.8075573058        4.8406261068       -1.8007916320
  H        15.0264226563        4.9606638152       -2.8641822879
  H        16.6538064413        3.7707610986       -1.6348400011
  H        16.5431011921        3.4647953607        0.8710817352
  H        14.7316414752        4.3416434252        2.0099391047
  C        12.3373223018        5.7585687760       -3.0611131567
  C        11.5048508207        4.7055634134       -3.4952674627
  C        11.5719019534        4.2743724196       -4.7897181629
  C        12.3958666169        4.9612917119       -5.6964132527
  C        13.0279790860        6.2353953377       -5.3121630991
  C        13.1345301654        6.5528970917       -3.9527500985
  H        13.7593455641        7.3914057104       -3.5010687488
  H        13.6221584839        6.8102088247       -6.0290999534
  H        12.4227642275        4.7095286547       -6.7783664645
  H        11.1202829957        3.3956129593       -4.9490349461
  H        11.0283200943        4.1358825645       -2.7392604733
  C        18.6346909400        6.6108478735        0.5331593507
  C        17.6374268171        7.3275456236        1.2155543002
  C        16.6048399731        7.8935338566        0.5069555919
  C        15.5310569399        8.6447598859        1.1006469236
  C        14.4996349091        9.2656807010        0.4268524647
  C        17.7258989071        7.8739325027        2.6467211335
  C        18.5637605837        8.9733609860        2.9874105962
  C        18.4796720972        9.5003861401        4.3065850283
  C        17.6714933251        8.9306952323        5.3217248587
  C        16.9419857020        7.8057698169        4.9808993471
  C        16.9365256611        7.3226011702        3.6372833100
  H        15.5112993177        8.6928956947        2.2055921610
  H        13.7148670895        9.8201329524        0.9652617544
  H        19.2000400235        9.4471669797        2.2638574102
  H        19.1299263338       10.3433818888        4.6050261689
  H        17.5304390035        9.2990391692        6.3222120311
  H        16.3084871857        7.2074083542        5.6733144482
  H        16.2192179472        6.5549266707        3.3885545815
  C        18.6643982018        6.5793180788       -0.9623413047
  C        19.7432183164        5.8424616213       -1.6120155941
  C        20.8568905952        5.4111208505       -0.8662353369
  C        20.7669752206        5.2682815939        0.5693907345
  C        19.6713906016        5.9257284182        1.2579674354
  C        16.6719318496        7.9817979753       -0.9200485459
  C        17.7876443061        7.4189764073       -1.6107947152
  C        17.6856277808        7.6426143143       -3.0564021653
  C        18.1502461841        8.8920145571       -3.5232533171
  C        17.8138007545        9.3155655793       -4.8500155206
  C        17.0427266781        8.5051345440       -5.6752154850
  C        16.6087985065        7.2524026263       -5.1968506928
  C        16.8644476735        6.8615560954       -3.9024164071
  H        16.4360019560        5.9153132692       -3.5165416125
  H        15.9444205008        6.5319568081       -5.8527647710
  H        16.7215925731        8.7740436701       -6.6806046619
  H        18.0020403758       10.3490222826       -5.1210278391
  H        18.5416722051        9.6307753167       -2.8749569562
  C        15.6122166307        8.6561093491       -1.6347017257
  C        14.5428121919        9.2459552384       -0.9887394649
  H        13.7983000872        9.7599317165       -1.5422934866
  H        15.6055981932        8.6770546487       -2.7331011855
  C        19.5382601136        5.7120095124        2.7707435023
  C        18.7006759705        4.6252629355        3.2699298080
  C        18.7982545682        4.3315977239        4.6614168924
  C        19.6637980838        5.0360956543        5.5407147233
  C        20.4230304275        6.0972390626        5.0392542453
  C        20.2674228934        6.4578662855        3.7078906581
  H        20.9820814514        7.1632912796        3.3048233723
  H        21.1841171693        6.6254659657        5.6619309891
  H        19.6671604294        4.5941010975        6.4952900978
  H        18.2277786835        3.5242714942        5.0911314858
  H        18.1106874399        4.0447694762        2.5675377982
  C        21.7524401580        4.5279863140        1.2480004135
  C        22.8634357915        4.0626515303        0.6439330926
  C        23.0646761214        4.3325085467       -0.7452230933
  C        22.0898004434        5.0180871778       -1.4276256461
  H        22.2678733841        5.0755163605       -2.5079187936
  H        24.0308763238        4.0771370054       -1.1371796701
  H        23.6086550983        3.4864065672        1.1813950469
  H        21.5714126636        4.4895471807        2.2967464876
  C        19.7270857408        5.5378764279       -3.1199107354
  C        19.0844896742        4.3711457705       -3.5006422408
  C        19.0245815938        4.0046979362       -4.8795866177
  C        19.6905517592        4.8099625320       -5.8395556778
  C        20.5140682159        5.8862923149       -5.4027641643
  C        20.4777758356        6.2223354574       -4.0409241521
  H        20.9031306118        7.1822975657       -3.7836291859
  H        21.2095255412        6.5444947598       -6.0292341099
  H        19.5206429364        4.7571607553       -6.9372281696
  H        18.4661864109        3.1139035570       -5.0940822412
  H        18.7294281114        3.7020962116       -2.7277118558
