140

  C        12.4302780201        7.3655473369        2.3516554342
  C        11.3767126874        7.8822143263        3.1296388112
  C        10.1824436558        8.2943581177        2.4266195323
  C         9.0660810517        8.8428742339        3.1015090177
  C         7.9905396576        9.3390245810        2.4565831215
  C        11.3383974026        8.2225419012        4.6100705270
  C        11.9974830119        9.4073195948        5.0067994259
  C        11.9212788775        9.8312254526        6.3683678287
  C        11.2448120415        9.0827870164        7.3202209782
  C        10.5384472049        7.8882589365        6.8638058351
  C        10.5540739050        7.5050606280        5.5277520905
  H         9.1755656400        8.7929542337        4.1572037965
  H         7.2161599895        9.9617023757        2.8615078214
  H        12.6452687209        9.8496823702        4.3119976723
  H        12.6033596202       10.6400266950        6.7225176404
  H        11.1740291767        9.2505037976        8.4358809565
  H         9.9535462772        7.2717906396        7.5645998421
  H        10.1665712306        6.5498421399        5.1566736416
  C        12.3797583247        7.2818310793        0.8819806962
  C        13.4211275214        6.5586869230        0.1781586983
  C        14.4844670182        5.9671499505        0.9978693458
  C        14.5323326831        6.0487183853        2.4456157942
  C        13.4818606239        6.6932356019        3.1041434642
  C        10.1794353879        8.2277630819        0.9955104442
  C        11.2748026998        7.8751020805        0.1525724331
  C        11.3117716819        8.2378208477       -1.2916197507
  C        12.1368875864        9.3398379164       -1.7029149169
  C        12.1593494798        9.6455275324       -3.0665594702
  C        11.4112789737        8.9935151372       -3.9920988661
  C        10.4221851736        8.0296570293       -3.6164642088
  C        10.4181288009        7.6562369638       -2.2310347490
  H         9.7304421391        6.8618870182       -1.9487278798
  H         9.7691456786        7.6222426724       -4.3256825700
  H        11.5140133430        9.2971749989       -5.0163228417
  H        12.8671444419       10.4105247549       -3.3713075136
  H        12.7774507688        9.7472958100       -0.8994418065
  C         8.9827444288        8.7486172159        0.3418175533
  C         7.8998291744        9.2641240867        1.0410126474
  H         7.0379841650        9.5875768949        0.4950068654
  H         8.9416531144        8.6160317073       -0.7453882165
  C        13.4651920285        6.3496654959        4.6167540930
  C        12.7696607231        5.1857304024        4.9743215160
  C        12.8070157674        4.7038262871        6.2451084441
  C        13.5232838118        5.4374137158        7.2480737132
  C        14.2455656237        6.5788852249        6.9676509652
  C        14.2507175436        6.9862831891        5.6148098412
  H        14.8148509682        7.9088334341        5.3357152358
  H        14.9137348209        6.9760161374        7.7116648365
  H        13.4935201261        5.1561382450        8.2852764742
  H        12.2531914110        3.8161268351        6.4841480536
  H        12.1864381666        4.7022466941        4.2102405884
  C        15.5794424928        5.4193142117        3.1338308569
  C        16.5723732656        4.7124069734        2.5002045216
  C        16.5982112744        4.6207989041        1.0661900824
  C        15.6103486360        5.2836332302        0.3854990723
  H        15.6034152614        5.1896467260       -0.6911631369
  H        17.3960740727        4.0374444180        0.6880679156
  H        17.2973069992        4.0773382919        3.0111060973
  H        15.6702687109        5.4683444113        4.2229980110
  C        13.3221294634        6.1221682078       -1.2367821181
  C        12.4113762770        5.0983326470       -1.4321964572
  C        12.1666660733        4.6170580770       -2.7841761111
  C        12.9199858306        5.1022678778       -3.8464181112
  C        13.8679296379        6.0976671850       -3.5775957046
  C        14.0193993446        6.6754999560       -2.3141276644
  H        14.8103879592        7.4732648175       -2.0632611564
  H        14.5109121462        6.3381625188       -4.3671090782
  H        12.6509336625        4.8269892060       -4.8317075594
  H        11.4107397588        3.8373154916       -2.9465324506
  H        11.7803417279        4.7577716952       -0.6207392965
  C        19.6079427542        7.3261782890        2.8514125632
  C        18.5933830918        8.0825842605        3.5158633037
  C        17.4563273415        8.5221383546        2.7923897854
  C        16.3923983053        9.1891676008        3.4740689219
  C        15.3918721167        9.8319993371        2.7980417490
  C        18.5708496603        8.5325378980        5.0132503034
  C        19.4959676892        9.4785305432        5.3738015172
  C        19.5876744347       10.0177796468        6.7253988668
  C        18.7065336406        9.4500620143        7.7002082865
  C        17.7306794022        8.4938987613        7.3742004338
  C        17.7087959388        8.0489830087        6.0561105324
  H        16.4755548954        9.1829938811        4.5666977854
  H        14.6028078352       10.3392644045        3.4237943616
  H        20.2590075552        9.8803259332        4.6403912890
  H        20.2179086445       10.9188739679        6.9268346226
  H        18.8677866016        9.6750731051        8.7577223541
  H        16.9515347801        8.2917929223        8.0818868159
  H        17.0425250613        7.2011666954        5.7813062597
  C        19.6297033608        7.2866415856        1.2996016118
  C        20.5959019497        6.5471477220        0.6206897620
  C        21.7135710864        5.8748080327        1.3881816757
  C        21.5632924177        5.8226749433        2.8127505816
  C        20.5447960759        6.4423688734        3.4847727048
  C        17.4014641697        8.5149345693        1.3686154491
  C        18.5110030651        7.9895492981        0.6948300896
  C        18.5138474246        8.2053368922       -0.7436202744
  C        19.2006986388        9.2870209450       -1.3275987239
  C        19.1617363733        9.5353074625       -2.7187090972
  C        18.3011820384        8.7565192456       -3.5489404153
  C        17.5041580853        7.7948922515       -2.9185362945
  C        17.5778509434        7.5405865198       -1.5463121626
  H        17.1711580498        6.6599341933       -1.1507186461
  H        16.8932740546        7.0837630040       -3.4983039953
  H        18.2282509438        8.8264336309       -4.6292293689
  H        19.7771115709       10.3150002212       -3.1019328831
  H        19.7934418346        9.9299533739       -0.7754725463
  C        16.3218362737        9.1221867914        0.6740879682
  C        15.3670170737        9.8687430020        1.3452294096
  H        14.6040916524       10.4896048373        0.8631491285
  H        16.3299201596        8.9892096007       -0.4062227547
  C        20.3139953479        6.1066708728        4.9431865331
  C        19.3790827680        5.1504795656        5.2333351248
  C        19.1741248781        4.7233821350        6.5850054696
  C        20.0594587549        5.1841893396        7.6443148600
  C        20.9670369183        6.2431591452        7.3210340253
  C        21.0872588630        6.7167457853        5.9932997601
  H        21.7410757514        7.5520833790        5.8058296461
  H        21.6163220548        6.5732828290        8.1210641546
  H        19.9922556271        4.8654685508        8.6833399848
  H        18.3725904457        4.0378666696        6.8166032127
  H        18.7130259458        4.7924761249        4.4544580959
  C        22.4907567469        4.9366760008        3.4613806926
  C        23.6069905994        4.4284300865        2.8569268398
  C        23.7938926640        4.6634547106        1.4711211483
  C        22.8462226671        5.2908231893        0.7320679438
  H        22.9096351751        5.5481150422       -0.3124204807
  H        24.8251278115        4.5855610782        0.9959399543
  H        24.2739070002        3.9033684796        3.4793415201
  H        22.3123868041        4.7273808343        4.4942564021
  C        20.4511904764        6.1089138158       -0.7768166067
  C        19.6119489647        5.0444489168       -1.0212243663
  C        19.4177471028        4.4135446921       -2.2541525366
  C        20.1897178547        4.9527208556       -3.3012909346
  C        21.1214618079        5.9886366081       -3.1222413401
  C        21.1534506901        6.6220023477       -1.8775878600
  H        21.7922581768        7.4444369706       -1.6533159152
  H        21.8207532970        6.2319105421       -3.9297025189
  H        20.1090785869        4.3811199710       -4.1926812020
  H        18.5878237205        3.6843677969       -2.4306182214
  H        19.0667028578        4.7037602920       -0.1309144547
