140

  C         2.2091499553        0.8482223067       14.7310922708
  C         3.3659231131        1.4524447220       15.3495625731
  C         4.4976091834        1.7858169325       14.5981823354
  C         5.7266212061        2.2237534734       15.3024039357
  C         6.6410912149        2.8728431881       14.5788298029
  C         3.4085535384        1.8362793989       16.8716631379
  C         2.7728307295        3.0368739096       17.2230009947
  C         2.7854161457        3.4232779766       18.5929243410
  C         3.6144322816        2.8029267705       19.5531799559
  C         4.2910368505        1.6080277524       19.1321154338
  C         4.2083765861        1.1534603357       17.8579585518
  H         5.7705786968        2.1423364067       16.4230126483
  H         7.4703712509        3.3025467604       15.1468425591
  H         2.2570013658        3.6232630668       16.4406107354
  H         2.1970056532        4.3096850366       18.8501475071
  H         3.7135315061        3.1146297841       20.5904805048
  H         4.9432141691        1.0855899980       19.7992781248
  H         4.7418317160        0.2656499082       17.4469985327
  C         2.2282238939        0.8176645206       13.2663953656
  C         1.2579493247       -0.0390538143       12.5976307076
  C         0.1464287333       -0.4862682458       13.3226225107
  C         0.0951912777       -0.4109907004       14.7633489113
  C         1.1162833107        0.2340617707       15.4870084752
  C         4.4273965837        1.9568764672       13.1985603018
  C         3.3110594897        1.4228323420       12.5036264872
  C         3.1737135279        1.8028308215       11.0897686964
  C         2.3018803901        2.8899645208       10.9215007331
  C         2.2362028847        3.4855689381        9.6679406115
  C         3.0756976029        3.0002439174        8.6365095929
  C         3.8694965616        1.8324312885        8.8339911626
  C         3.9134195866        1.2634126972       10.0662861502
  H         4.5174302788        0.3594783386       10.1418777273
  H         4.5372719751        1.5222082472        8.0097277844
  H         3.1275463395        3.4796878804        7.6273015177
  H         1.5272881563        4.3150971933        9.4005821548
  H         1.7342304889        3.2610053752       11.7667919603
  C         5.4760004786        2.6291818078       12.4610737478
  C         6.6108314538        3.0273346617       13.1430515967
  H         7.4244871788        3.5176272906       12.6071492343
  H         5.3576692589        2.8525473180       11.3977362490
  C         1.0982258243        0.0097961054       17.0018211364
  C         1.8345672571       -1.1100038893       17.4987495487
  C         1.7708652013       -1.4141408598       18.8746182313
  C         0.9995464812       -0.6338287297       19.7573406260
  C         0.1999028385        0.3752017924       19.3005372091
  C         0.3771285421        0.7587138400       17.9843477020
  H        -0.2993323038        1.5423013034       17.6819360376
  H        -0.5145462314        0.9244155758       19.8884329177
  H         0.9405449435       -0.9869947370       20.7659483461
  H         2.2305416200       -2.2582008566       19.2432158947
  H         2.3236345971       -1.7689143136       16.7674475000
  C        -1.0146322090       -1.0954703971       15.3415404919
  C        -2.0484331627       -1.7318712015       14.6228550099
  C        -1.8780034143       -1.8956603425       13.1706174956
  C        -0.8082751965       -1.2749207177       12.6057386170
  H        -0.6818802301       -1.5027578156       11.5975925517
  H        -2.4552578026       -2.5512858313       12.5168202483
  H        -2.9764909201       -2.1260356811       15.0623881311
  H        -0.8953612660       -1.2005104651       16.4079556596
  C         1.3086363317       -0.3217403563       11.1413472699
  C         2.2859749619       -1.3239831253       10.7251091481
  C         2.1582244441       -1.8280394211        9.4481848090
  C         1.0762736360       -1.4893446333        8.6056934762
  C         0.2518031838       -0.3913130236        8.9096653419
  C         0.4475201919        0.1604296142       10.1710599497
  H        -0.2516820814        0.9775326211       10.4423322496
  H        -0.5598361105        0.0179231038        8.2549114657
  H         1.1753780685       -1.9517295193        7.5647240617
  H         2.8556254286       -2.5636259080        9.0538261556
  H         3.1071434592       -1.6425494406       11.3804847783
  C         9.4778809301        0.2915823443       14.9340628434
  C        10.5128083696        1.0219149361       15.6470538389
  C        11.4739987022        1.6924022593       14.8653030945
  C        12.4830696523        2.4263866302       15.4980364054
  C        13.4078617382        3.1138510827       14.7293913889
  C        10.3364458377        1.5094836622       17.1037084857
  C         9.4374744949        2.4651172187       17.5328977285
  C         9.4150385949        3.0063163784       18.8202965124
  C        10.3663144114        2.6107959922       19.7240975142
  C        11.1813702760        1.4682939333       19.3871130080
  C        11.1384157223        0.9563218742       18.0762634734
  H        12.7183985628        2.3620715780       16.5459210342
  H        14.1444668440        3.5782189279       15.3281798058
  H         8.6625255139        2.7020824608       16.8196718346
  H         8.7028059674        3.7427837608       19.1490046359
  H        10.5065273474        3.0132732935       20.6979345804
  H        11.8222369237        1.1358007801       20.1541079689
  H        11.7320755817        0.0756930591       17.8284468810
  C         9.3821914210        0.3064871356       13.4623805888
  C         8.2596264236       -0.4244775604       12.8843891923
  C         7.1638296414       -0.9012266852       13.5968860901
  C         7.2660920354       -0.8136374590       15.0472889932
  C         8.4903052363       -0.3925843398       15.7071225256
  C        11.4316559481        1.6353503796       13.4153372928
  C        10.4016420905        1.0256401210       12.6707480565
  C        10.2901517523        1.3746865768       11.2255150739
  C         9.4739659629        2.4615618158       10.8363724905
  C         9.6001426824        2.9304701722        9.5392351714
  C        10.5599055296        2.4507405269        8.6667729964
  C        11.3582123627        1.3294536934        9.0263982563
  C        11.1450092596        0.7583910289       10.2988908537
  H        11.7463849942       -0.0834070286       10.6655876629
  H        12.0780619344        0.8409432226        8.3468745757
  H        10.7956080305        2.8805785633        7.6661228347
  H         9.0474247834        3.8489991936        9.3230569887
  H         8.8061543115        2.8460409772       11.5896642339
  C        12.4489849276        2.4002261576       12.6645375924
  C        13.3777060233        3.1589081093       13.2831239101
  H        14.1123537876        3.6850259052       12.7041068376
  H        12.4772657607        2.4039543196       11.5682144740
  C         8.7221025836       -0.7111281463       17.1138944677
  C         9.4415669392       -1.9088948575       17.4747723647
  C         9.3979050553       -2.4131992422       18.8233628019
  C         8.8076198909       -1.6473315649       19.8027937201
  C         8.1525480941       -0.4823854450       19.4736456411
  C         7.9887223014       -0.1014783447       18.1306819862
  H         7.4163825158        0.8217360684       18.0223008525
  H         7.8109760642        0.1812253287       20.2447247455
  H         8.7376766505       -1.9433945646       20.8756614999
  H         9.9727999468       -3.2996292078       19.1539769165
  H         9.9715180699       -2.3902070671       16.6800444603
  C         6.1304720941       -1.2298665772       15.7461053880
  C         5.0321091904       -1.8299944564       15.1815031477
  C         4.8690513877       -1.8135504345       13.7860002110
  C         5.9829969835       -1.3901907835       12.9485689609
  H         5.9941778187       -1.4700967771       11.8539858772
  H         3.9130405946       -2.1052514868       13.3699705922
  H         4.2831541941       -2.2852558249       15.8946410455
  H         6.2695735696       -1.2388184557       16.8260183816
  C         8.3201990719       -0.6036848191       11.4298412457
  C         9.2739057367       -1.5574954656       11.0921443718
  C         9.3966070882       -2.0842143361        9.7716104035
  C         8.5970327435       -1.5494634471        8.7783834590
  C         7.5776281606       -0.5649218748        9.1004516975
  C         7.4041146976       -0.1024705181       10.4433171831
  H         6.6181834528        0.5955548175       10.7094268645
  H         6.9691932088       -0.2183721918        8.2827613283
  H         8.6830491211       -1.8232360494        7.7585203865
  H        10.1997587812       -2.7715282293        9.5377525680
  H        10.0201478313       -1.8358236780       11.7733763842
