140

  C        11.2439772540        7.2595426237        2.1005199706
  C        10.2966067668        8.0139466698        2.7963657353
  C         9.2073780498        8.5237558460        2.0881847680
  C         8.1246796280        9.2608096081        2.7164190665
  C         7.0522746575        9.7264086983        2.0229628422
  C        10.3805052347        8.2880529168        4.2523386591
  C        11.1277209883        9.4548749493        4.6072711721
  C        11.1629093265       10.0498956971        5.9148206275
  C        10.4742793536        9.3773873837        6.9400471922
  C         9.7022521116        8.2658665494        6.5434992091
  C         9.6973146721        7.6808416343        5.2839654205
  H         8.0461463281        9.3512127136        3.7817490308
  H         6.2587831146       10.0752588004        2.6796908662
  H        11.6661956425        9.8850406758        3.7748507614
  H        11.6609337646       11.0110479680        6.1071479639
  H        10.5568741340        9.6574352651        8.0346727064
  H         9.2727602247        7.6166316300        7.3924369366
  H         9.1918908161        6.7450214544        5.0199746543
  C        11.3328040765        7.2515563334        0.6087507190
  C        12.3052442124        6.5213178003       -0.0893305112
  C        13.4376151081        6.0780791169        0.6477259990
  C        13.4274081401        6.0677739498        2.0901792815
  C        12.2391594760        6.5239812246        2.7616968720
  C         9.2065301630        8.4866735422        0.6488833004
  C        10.2909754427        7.9715907501       -0.0753957776
  C        10.2913588887        8.2808661903       -1.5307415272
  C        11.2716364469        9.1532545836       -2.0454483458
  C        11.2555150725        9.5278166776       -3.3502751355
  C        10.2535071960        8.9931753811       -4.2094613134
  C         9.3016114807        8.0836834478       -3.7344069828
  C         9.4038182040        7.7163088153       -2.4052658255
  H         8.7686354483        6.8871275667       -2.0883901997
  H         8.5500256920        7.7374249453       -4.4809245475
  H        10.0897319044        9.4479741120       -5.1974674487
  H        12.0143514232       10.2283817909       -3.7101818296
  H        11.9922197875        9.4427870989       -1.2391278920
  C         8.0352889695        8.9846636122       -0.0405408586
  C         6.9635084967        9.5269319997        0.5813140549
  H         6.2093825442       10.0721795609        0.0510028583
  H         8.0828484311        8.9098957473       -1.1709836964
  C        12.0173296881        6.0854035617        4.1235830039
  C        10.9670237377        5.1659727643        4.3060895320
  C        10.7020239144        4.7259359961        5.5828229958
  C        11.4972218124        5.1418453824        6.6613245952
  C        12.6570864049        5.9296217448        6.4403062031
  C        12.8689211743        6.4436020430        5.1589731683
  H        13.6238689428        7.2135358727        4.9970715881
  H        13.2425348667        6.2020764404        7.3066908351
  H        11.4027017815        4.6706865249        7.6837579103
  H         9.8502172444        4.1195689042        5.7824327891
  H        10.3635004304        4.8211592808        3.4406650616
  C        14.5139762802        5.3630194385        2.8030206923
  C        15.5524751955        4.7531011728        2.1688494323
  C        15.5241163934        4.7168173253        0.7501152598
  C        14.5400148932        5.3872771635        0.0733936730
  H        14.6604732202        5.2877900799       -0.9916330105
  H        16.3402585429        4.2162393143        0.2293753102
  H        16.2853266801        4.2249854807        2.6907513224
  H        14.4545622257        5.2693699195        3.9078966313
  C        12.2537756206        5.9889939490       -1.5029188748
  C        11.3654624931        4.9618223755       -1.8993367204
  C        11.4737434738        4.3954631595       -3.1821456784
  C        12.5367946215        4.7893754416       -4.0403334563
  C        13.3348405961        5.8740292450       -3.6933046861
  C        13.0780061579        6.5030722923       -2.4974513189
  H        13.7086323881        7.4888366217       -2.3254350109
  H        14.0380201115        6.3000721413       -4.4244015006
  H        12.6426877050        4.3147854371       -5.0472157098
  H        10.7671644063        3.6658125851       -3.5327078458
  H        10.6155238433        4.5282934293       -1.1963769100
  C        18.6654806690        7.3591917724        1.9052107058
  C        17.6416633329        8.1272369627        2.5500411615
  C        16.5144645579        8.6527465798        1.8686442459
  C        15.4258598065        9.3739563980        2.5628244356
  C        14.3270945029        9.8287501025        1.8423863919
  C        17.5774568745        8.4541789780        4.0633928148
  C        18.2469303766        9.6441978125        4.5517148934
  C        18.2797306047       10.0218692444        5.8735620779
  C        17.5670364981        9.2010846986        6.8113781707
  C        16.7917446403        8.1379205793        6.3600689071
  C        16.7888583662        7.7391435918        4.9816841166
  H        15.3528735241        9.3910246863        3.6734441196
  H        13.5056106690       10.3071998025        2.3397347525
  H        18.8149075784       10.1111565979        3.7643509622
  H        18.9357263728       10.7656678606        6.3312621383
  H        17.5687647225        9.3792332819        7.8905623376
  H        16.1797592663        7.6472964331        7.0916120929
  H        16.3199462695        6.8300969376        4.6097533521
  C        18.6207039281        7.3727559744        0.3676667815
  C        19.7187872098        6.7100424149       -0.2755015905
  C        20.7805096892        6.1195353927        0.3715471423
  C        20.7586318172        6.0187501460        1.8343506363
  C        19.7019727965        6.6495340751        2.5131099230
  C        16.4413642643        8.5440055205        0.3771120689
  C        17.5283214477        8.0328872367       -0.3084761517
  C        17.5938103387        8.3610556992       -1.7561216065
  C        18.4852159384        9.3962921415       -2.2316149668
  C        18.6245658439        9.7546203126       -3.6276637196
  C        17.8329840049        9.0006969117       -4.5087830718
  C        16.9882675402        7.9973522623       -4.1043497152
  C        16.8967622843        7.6579555148       -2.7693927789
  H        16.3075911770        6.7314621420       -2.5235970094
  H        16.3391269946        7.5691399990       -4.8691302956
  H        17.9741546360        9.1196316233       -5.5733358628
  H        19.4006750551       10.4344278131       -3.9629528715
  H        18.9681596634        9.9634897145       -1.4983401095
  C        15.3212358126        9.1060530489       -0.2436087303
  C        14.3264011451        9.6901587395        0.4086573026
  H        13.5632270981       10.1255816067       -0.1574204704
  H        15.2334539932        9.0302944014       -1.3311799032
  C        19.6859537121        6.3056520813        4.0443054815
  C        18.8061847342        5.3303028776        4.4569301964
  C        18.8946609613        4.8721014573        5.7276421126
  C        19.7287842763        5.4553743297        6.6664397134
  C        20.5446438123        6.5124184134        6.3133888869
  C        20.5182902717        6.9915288432        4.9892240424
  H        21.1576290089        7.8086450391        4.6419204681
  H        21.2165859665        6.8488976923        7.1074983304
  H        19.7033590692        5.1138030338        7.7097285463
  H        18.3038782965        3.9615604054        6.0232106640
  H        18.2448633122        4.7560685723        3.7387365005
  C        21.8003530146        5.2689645981        2.4613954563
  C        22.8996677089        4.7261007464        1.8619176615
  C        22.9214736794        4.8757757740        0.4182649528
  C        21.9225929681        5.5088277451       -0.2877387154
  H        22.0647709183        5.5560160877       -1.3872378702
  H        23.6597056001        4.3126031982       -0.1301695417
  H        23.6560588712        4.1526093622        2.3541454947
  H        21.8042774312        5.1274613304        3.5298260138
  C        19.5981704520        6.3325279879       -1.7732840621
  C        18.7805560629        5.3586761063       -2.1807326845
  C        18.8193142075        4.8631397885       -3.4968615800
  C        19.7344519701        5.3950814572       -4.4495623933
  C        20.6242611732        6.3763147053       -3.9886541429
  C        20.5631944586        6.8269593912       -2.6538923501
  H        21.2188021826        7.6408734744       -2.3670170082
  H        21.3485065752        6.8016559953       -4.6478165501
  H        19.8928671492        5.0653214677       -5.4824181731
  H        18.1085911792        4.1094176085       -3.8492080541
  H        18.0759391292        4.8407395763       -1.5021814722
