140

  C         3.9462995543       -0.1268241189       14.2058966413
  C         4.9316155866        0.6052171843       14.8613531543
  C         6.0418001559        1.1409979839       14.0580306793
  C         7.2482619357        1.7273778126       14.6656843848
  C         8.2376958126        2.3648655204       13.9532631906
  C         4.9013989907        0.9589721588       16.3158677290
  C         4.1371368367        2.1196047482       16.7068085719
  C         3.9837893036        2.4509532180       18.0653646343
  C         4.7323267274        1.8036907087       19.0701874501
  C         5.5706863893        0.7470754783       18.6848481154
  C         5.6605216948        0.3283443361       17.3007716449
  H         7.3215361755        1.8073645717       15.7529047327
  H         8.8885944304        3.0340938602       14.4794267035
  H         3.5729990457        2.6261244711       15.9402741677
  H         3.4604483478        3.3826932811       18.2805047027
  H         4.5208593667        2.0597216937       20.1117796867
  H         6.1852626041        0.1989856088       19.4172652110
  H         6.4027125846       -0.4178939971       17.0692320995
  C         3.8898507766       -0.1599653657       12.6825761302
  C         2.6926611952       -0.6791389509       12.0077320273
  C         1.6186117868       -1.2352818201       12.7503366349
  C         1.8094126306       -1.4099386662       14.1963499207
  C         2.9187023669       -0.8173439859       14.9038261265
  C         6.0184798171        1.0785701509       12.6452511075
  C         4.9465176566        0.4901369382       12.0136667274
  C         4.8675923693        0.7982335394       10.5131815921
  C         4.2634494775        2.0072883200       10.0584399989
  C         4.2859552853        2.3524166550        8.7134735962
  C         5.0655619478        1.6860390562        7.8164184274
  C         5.6390107663        0.5210711474        8.2695852557
  C         5.5239459128        0.0125585926        9.5278356431
  H         6.0197330006       -0.8776178151        9.8765180482
  H         6.2418491014       -0.1767747649        7.6911610455
  H         5.2255532269        1.9138701456        6.7626207552
  H         3.8373876878        3.2756171094        8.3575474467
  H         3.6122382825        2.5004759039       10.7767189250
  C         7.1936275654        1.6436289491       11.9390920427
  C         8.2585474263        2.1983148747       12.5624985126
  H         9.0665670742        2.6865877496       11.9655906209
  H         7.2852380944        1.3764967008       10.8977917179
  C         2.9638267451       -1.2077828530       16.3905168839
  C         3.8104811404       -2.3246070314       16.7544439572
  C         3.5961664041       -2.8563389668       18.0545408107
  C         2.9513918713       -2.0763878915       19.0534997716
  C         2.3053482688       -0.9030938441       18.6840646281
  C         2.1396448598       -0.5689127486       17.3536005909
  H         1.4155863607        0.1044202753       16.9204324956
  H         1.6830935533       -0.3277904418       19.4188531099
  H         2.9904044269       -2.4064350117       20.0883108486
  H         4.0567228782       -3.7873508803       18.3010678700
  H         4.4371886757       -2.9045807403       16.1014898600
  C         0.7655259581       -2.1741914089       14.8924825257
  C        -0.3602741586       -2.6556563961       14.2722140545
  C        -0.5775429597       -2.3725359936       12.8654492286
  C         0.4464060455       -1.7690156528       12.0777336724
  H         0.3771570475       -1.6769373542       11.0228507765
  H        -1.4836722646       -2.6488480902       12.3689966949
  H        -1.1740607208       -3.0671713490       14.8543403751
  H         0.8548447952       -2.2694510701       16.0397263818
  C         2.6593605738       -0.9518050664       10.5137602602
  C         3.4739660994       -1.9921918550       10.0322343879
  C         3.3064929760       -2.4199550807        8.7118112247
  C         2.3376085715       -1.8395605992        7.8586956655
  C         1.5538000386       -0.7121201627        8.3133056025
  C         1.7531156179       -0.2795967573        9.6419016162
  H         1.2790943360        0.6000903904        9.9737964826
  H         0.8507987071       -0.1653682173        7.6555809193
  H         2.0629154991       -2.3422618094        6.9448213332
  H         3.7666500907       -3.3451932621        8.4213907365
  H         4.0239419776       -2.7224538390       10.6124733785
  C        11.1411104171       -0.3212216965       14.0999382538
  C        12.3105572017        0.2126973070       14.8267273729
  C        13.4004235957        0.7773116103       14.1400116388
  C        14.5580922876        1.3589157707       14.9023075035
  C        15.5049786175        2.0914162365       14.2196922401
  C        12.2605843710        0.6052376947       16.2918631807
  C        11.8143144785        1.8955591189       16.5421305646
  C        11.7512846594        2.4630582095       17.8432275426
  C        12.1970900318        1.6809435969       18.8718211249
  C        12.6523640429        0.3989799411       18.6485667236
  C        12.7922824568       -0.0987757050       17.3811783585
  H        14.6824939372        1.2109690944       15.9592270387
  H        16.3357109310        2.5949328482       14.7262631619
  H        11.5300187022        2.4502482479       15.6517457314
  H        11.5434561447        3.5525653272       17.9961986172
  H        12.2350984735        2.1354552597       19.8842270149
  H        13.1416758455       -0.2036485586       19.4078769673
  H        13.1668142385       -1.1135368813       17.2855508738
  C        11.1118400627       -0.2282326900       12.6675416774
  C        10.1386951142       -0.8967753721       11.9039076056
  C         9.0742138162       -1.5286663047       12.5921860136
  C         9.0665189509       -1.6135821208       14.0697549890
  C        10.1949942167       -1.1483917046       14.8147494870
  C        13.3961553395        0.8556213604       12.7239868117
  C        12.2624144977        0.4313681000       12.0052367352
  C        12.1046029208        0.7538441333       10.5501066289
  C        11.2360941316        1.7845545795       10.1735816139
  C        11.1728622603        2.2318026799        8.8594286621
  C        11.9538479674        1.6095944042        7.8693276028
  C        12.8883539920        0.6298299462        8.2552276876
  C        12.9509197145        0.1815736792        9.5524099581
  H        13.6975390030       -0.5241062530        9.7819415438
  H        13.5075072922        0.1401626521        7.4112851639
  H        11.9643585636        1.9784617063        6.9111832965
  H        10.5501541216        3.1048954541        8.5356838644
  H        10.6225772567        2.3057949389       10.9139646241
  C        14.4343395764        1.5815586474       12.0922486541
  C        15.4781739532        2.1229260620       12.8121264675
  H        16.2633560943        2.6363279970       12.2756585683
  H        14.4142025198        1.6878253722       10.9903865395
  C        10.2094237975       -1.4069515331       16.3040263874
  C        10.8662061679       -2.4938588201       16.8680626028
  C        10.7054347313       -2.6545815605       18.2492118077
  C        10.0915451553       -1.7208722402       19.0322274766
  C         9.4072070765       -0.6300481228       18.4747812776
  C         9.5027256230       -0.4929957995       17.1136679159
  H         9.0696304041        0.3762572048       16.6116712810
  H         8.7829896229        0.0147804522       19.1080113131
  H        10.0817954133       -1.8696938594       20.0954443107
  H        11.1577059328       -3.5273816832       18.7297232577
  H        11.3516981391       -3.2004106494       16.2038237086
  C         7.9417415721       -2.1410803757       14.7355838726
  C         6.8523086223       -2.5355445621       14.0152155886
  C         6.8519870332       -2.4080831802       12.5562470088
  C         8.0063385702       -2.0518080035       11.8795410983
  H         7.9822352629       -1.9155529253       10.7973274848
  H         5.9115571002       -2.5957782811       12.0843546656
  H         5.8917466702       -2.8220662965       14.4716838266
  H         7.8958373604       -2.1673436519       15.8129700332
  C        10.1630686292       -1.2498960010       10.4736738380
  C        10.9265705329       -2.3789510690       10.1581677767
  C        10.8953761792       -3.0068633830        8.9192001427
  C        10.1258303304       -2.6048395764        7.8448250215
  C         9.4493305753       -1.3280642592        8.0853930430
  C         9.4454331274       -0.7137069646        9.3665246943
  H         8.8738838027        0.1928566045        9.4349263251
  H         8.7748855263       -0.9905943595        7.3225835519
  H        10.0445169654       -3.1139221280        6.9134263222
  H        11.6209692659       -3.7934213877        8.7428831469
  H        11.6097983972       -2.7701748612       10.9185923576
