140

  C         3.7215362712        0.0055178687       14.3632913896
  C         4.7568237177        0.7141352466       15.0934084183
  C         5.9001635808        1.1430820305       14.3391353414
  C         6.8565686026        2.0937810713       15.0017977335
  C         7.8225884599        2.6854703792       14.2653539426
  C         4.5525264649        1.3094699702       16.4537215540
  C         3.6403217272        2.3785925933       16.6184698414
  C         3.5193520278        2.9905755181       17.8961372631
  C         4.2766904327        2.5499760486       18.9585449752
  C         5.2932381348        1.5795143320       18.7817558242
  C         5.4069945734        0.9690272271       17.5202185887
  H         6.9766395375        2.1411433639       16.1091622107
  H         8.5342783680        3.3053022713       14.7691595855
  H         3.0684710204        2.6129431564       15.7281107155
  H         2.7024719544        3.6490286075       18.2299631143
  H         4.1272971399        3.0760770679       19.8994540201
  H         5.8852639674        1.1743951387       19.6088592674
  H         6.1425113177        0.2322207439       17.3208245641
  C         3.7903165519        0.0191169935       12.8646429352
  C         2.8651801942       -0.8148721830       12.1918438763
  C         1.8687810617       -1.4748973568       12.9163437984
  C         1.6237537618       -1.2485087771       14.3038306773
  C         2.6813011221       -0.5719149995       15.0145246624
  C         5.9089127337        1.1772851450       12.9122374183
  C         4.8211500804        0.7028634116       12.2140728966
  C         4.8197923105        0.9679880997       10.7098762026
  C         4.2579461017        2.1193091355       10.1181767683
  C         4.4350786284        2.3988713251        8.8271887602
  C         5.2065963973        1.5830179197        7.9884072452
  C         5.7832217413        0.4467231872        8.4690329402
  C         5.6129722498        0.1737874876        9.8577054215
  H         5.9821207346       -0.7677211524       10.2500210923
  H         6.2884863637       -0.3072689715        7.8170282271
  H         5.3774988551        1.9734832785        6.9899397758
  H         3.9534310253        3.3242170990        8.5264321698
  H         3.6950810533        2.7620220427       10.7871584292
  C         6.9930661262        1.7730058991       12.1630899309
  C         7.9570110560        2.4974085643       12.8352439960
  H         8.8471975613        2.7718276786       12.2993552159
  H         7.1896716769        1.4755308060       11.1361290500
  C         2.6877432650       -0.6902021307       16.5338471326
  C         3.4597277610       -1.7250827786       17.1051380450
  C         3.5257887520       -2.0063154351       18.4869146246
  C         2.6108567448       -1.3520110919       19.3125449162
  C         1.7269290561       -0.4318450155       18.7355160418
  C         1.8138498649       -0.0499888767       17.4251241522
  H         1.1658123897        0.7429614466       17.0466585880
  H         0.8460946439       -0.0780023654       19.3390715528
  H         2.5652476122       -1.6232679836       20.3416210269
  H         4.2870569771       -2.6939611284       18.8013027987
  H         4.1764479178       -2.1966332159       16.3868575758
  C         0.5745999795       -2.0003175889       14.9382401351
  C        -0.3280578443       -2.7397096279       14.1895500728
  C        -0.2802034729       -2.7508018568       12.8305682091
  C         0.8096789082       -2.1453320911       12.2080313937
  H         0.9223511471       -2.3240786517       11.1076065528
  H        -1.0819906804       -3.2535885507       12.2585828985
  H        -1.0757443665       -3.2724364218       14.7747170780
  H         0.5257073452       -2.1547351955       16.0355528184
  C         2.9182333589       -1.1217434211       10.6455176487
  C         3.3025276209       -2.4546685084       10.2155720873
  C         3.1843235028       -2.8982997525        8.8894663443
  C         2.6242707323       -2.0598131787        7.9468830893
  C         2.1649407276       -0.7873034840        8.3367388940
  C         2.3135469909       -0.3260962739        9.6613944443
  H         1.8771756790        0.6826907146        9.7733253010
  H         1.6472395084       -0.1323769136        7.6942967496
  H         2.3840079215       -2.4644964032        6.9760739174
  H         3.3195354428       -3.9448186874        8.6832764704
  H         3.7006313362       -3.1558357423       10.9396208598
  C        10.7391736587       -0.2464192945       14.1910247434
  C        11.6534740911        0.5823951450       14.8742714281
  C        12.7830493889        1.1498521220       14.2241559786
  C        13.7749099110        1.8478327126       14.9690227434
  C        14.7789657059        2.5206361416       14.2818016791
  C        11.3607924359        0.9494842275       16.3057627501
  C        10.6269641590        2.1013232090       16.4838115441
  C        10.5114056572        2.6313679040       17.7602799925
  C        11.1172523303        2.0257978807       18.8834417870
  C        11.9861105627        0.9148211190       18.6571007454
  C        12.0890788308        0.3820222708       17.3488765837
  H        13.7670404894        1.9972372749       16.0840001038
  H        15.4867641804        3.2089423987       14.7981424147
  H        10.1102723473        2.6011081286       15.6821439058
  H         9.9919895217        3.6148391300       17.8011445830
  H        11.0432815875        2.4651121069       19.8609499929
  H        12.3988752155        0.5338034918       19.6019471619
  H        12.8285368655       -0.3911145639       17.1482733925
  C        10.6956852814       -0.1291035012       12.7101500549
  C         9.6986615710       -0.8712014416       11.9650454508
  C         8.6963690657       -1.5541492521       12.6809467959
  C         8.7400601579       -1.6813284880       14.1202858094
  C         9.7674436073       -1.0129761456       14.8382211046
  C        12.8548750803        1.1153427411       12.7752061799
  C        11.7335746101        0.6433218003       12.0596731108
  C        11.7318565917        1.0083949728       10.6074564968
  C        11.0149662406        2.1339700315       10.0979833858
  C        11.2065592191        2.5931423213        8.8194092710
  C        12.1386922801        1.8924396598        8.0183680831
  C        12.8725778180        0.7983778780        8.4875940803
  C        12.7145519808        0.4321280289        9.8160779096
  H        13.4329661505       -0.3419009742       10.2175324575
  H        13.4989414784        0.1815190471        7.8628479597
  H        12.4097793021        2.4053729630        7.0585369801
  H        10.7633326708        3.4823049752        8.4211444740
  H        10.3964607379        2.7845128866       10.7929404093
  C        13.8588814862        1.8502469601       12.1412068921
  C        14.8916642055        2.4076989900       12.8823685338
  H        15.7106423515        2.9089840678       12.3544225480
  H        13.8128807016        1.9910133221       11.0715363317
  C         9.8771831157       -1.3948261184       16.2497866255
  C        10.8457265216       -2.2926044984       16.6276224029
  C        10.8116226570       -2.8006791505       17.9133693559
  C         9.8122853816       -2.4399590569       18.8072960658
  C         8.9508853401       -1.4212741811       18.4671740747
  C         8.9871862997       -0.8747148435       17.1942967559
  H         8.3605802646       -0.0275207862       16.9087122023
  H         8.1909871958       -1.0881938895       19.1892107303
  H         9.7956823737       -2.8789138434       19.8097078422
  H        11.6126559960       -3.4717359289       18.2233041736
  H        11.5499196693       -2.6748491803       15.8703843572
  C         7.7005653049       -2.4993987835       14.7398958914
  C         6.5745774267       -2.9459879945       14.0961956343
  C         6.4478190526       -2.6632918881       12.6881240118
  C         7.5643325348       -2.1498247251       12.0925882448
  H         7.6236018302       -2.1641581055       11.0272450779
  H         5.5921448014       -3.0419389037       12.1638907631
  H         5.6664989802       -3.3666354612       14.5554950939
  H         7.6930800237       -2.5576130461       15.8297087703
  C         9.8271127803       -1.1469360262       10.5344054780
  C        10.6443346591       -2.2497728475       10.2783401659
  C        10.7698815983       -2.8434964555        8.9853949220
  C         9.9713055806       -2.3214694954        7.9653303232
  C         9.1331851104       -1.2104684370        8.2405358748
  C         9.0194337384       -0.6461956980        9.5006852877
  H         8.3847911801        0.2191983482        9.5624885210
  H         8.5272423135       -0.7981145637        7.4455857814
  H        10.1226721338       -2.6411710515        6.9397209212
  H        11.4898330279       -3.6260674786        8.7966258247
  H        11.3269190631       -2.5796153056       11.0391520411
