140

  C         8.2052684461        8.1581549468        1.5883532919
  C         7.1878652980        8.9570294345        2.2070150090
  C         6.0785178414        9.3866227261        1.4671485288
  C         4.8881987376       10.0294400852        2.0522276435
  C         3.8657694710       10.4879013881        1.2742672163
  C         7.2302084929        9.3790724212        3.6315482124
  C         8.1393411562       10.4117623689        4.0332634878
  C         8.2846032077       10.6764346124        5.3486055749
  C         7.4267908393       10.1052043713        6.3629374665
  C         6.4970908835        9.1482279041        5.9607272215
  C         6.4013486592        8.7971206403        4.6269264894
  H         4.7801036518       10.0941280192        3.0996629239
  H         3.0580923571       10.9606987056        1.8885985909
  H         8.7100367614       10.8871539713        3.2648774515
  H         9.0370930000       11.3641055547        5.7053809093
  H         7.5333823906       10.3796066800        7.3868694311
  H         5.7606339081        8.8285341094        6.6772255878
  H         5.7399399281        7.9969569450        4.3078690665
  C         8.2381650064        8.0495584611        0.0837389433
  C         9.3820393953        7.4531606271       -0.5561703602
  C        10.4380647361        6.9270189819        0.1967763106
  C        10.4157933332        6.9063680697        1.6495447995
  C         9.2394490560        7.4986881362        2.2861022844
  C         6.1131816748        9.2812216372       -0.0103639262
  C         7.2144019307        8.7089904624       -0.7085377481
  C         7.3925300772        9.1135877373       -2.1987631674
  C         8.0923209744       10.2612473821       -2.4979627101
  C         8.1028126334       10.8317130154       -3.7814638426
  C         7.3557082706       10.2267731288       -4.7919083401
  C         6.6584796966        9.0260854053       -4.5181717181
  C         6.6732132761        8.4839764501       -3.2094213955
  H         6.1960800055        7.4862358948       -3.0656707079
  H         6.0417560272        8.5763140162       -5.2713776116
  H         7.2771349323       10.6542998178       -5.8358416792
  H         8.8485452905       11.5853427770       -4.0086827362
  H         8.7108505495       10.7698059404       -1.7880357227
  C         5.0141857396        9.7963653211       -0.7547286916
  C         3.8800874587       10.3176659311       -0.1463336442
  H         2.9625230195       10.5437178349       -0.6745916842
  H         4.9522683437        9.7660297403       -1.8345338198
  C         9.1604863263        7.2585941260        3.7496777094
  C         8.2803069973        6.3122276366        4.3313482781
  C         8.3292204652        6.0292499793        5.6509967229
  C         9.2342762161        6.7221298628        6.5021751964
  C        10.2144787495        7.5642708954        5.9650113425
  C        10.1778040461        7.8460713557        4.5772637231
  H        10.8841011262        8.5589675211        4.1939167543
  H        11.0780069806        7.9588066500        6.4787377519
  H         9.3832693754        6.4501616041        7.5544801796
  H         7.5482862506        5.3598427091        6.0479126125
  H         7.4858517139        5.9492512545        3.6771945622
  C        11.5279437622        6.2868072059        2.3245337379
  C        12.5113613018        5.6019841956        1.6557934484
  C        12.5035418348        5.5418590787        0.2408073931
  C        11.5244111730        6.1452834076       -0.4740686985
  H        11.5986981441        6.1791367778       -1.5639863816
  H        13.3373664953        5.0845052831       -0.3001565992
  H        13.3031828685        5.0759342534        2.1621174653
  H        11.5916172411        6.3447993912        3.3898022301
  C         9.3438403351        7.0723137510       -2.0072804135
  C         8.4973201537        6.0199655365       -2.4501383511
  C         8.5622345814        5.5643788967       -3.7646761827
  C         9.5194568093        6.0916386968       -4.6550600075
  C        10.3254539565        7.1407079004       -4.2219169968
  C        10.2663510243        7.5991066079       -2.8859149526
  H        10.8023669131        8.4677623140       -2.5543026907
  H        11.0468454140        7.6013632068       -4.8798877702
  H         9.6092066635        5.8371659529       -5.7218689560
  H         7.7711714890        4.8059433220       -3.9531043813
  H         7.8212443755        5.5499818402       -1.6710634805
  C        15.3635856173        8.2370612647        1.7635895626
  C        14.3611183145        8.9891304051        2.4408147829
  C        13.2711218640        9.4387942396        1.7474561463
  C        12.2794086156       10.2178821899        2.3926009651
  C        11.1942035997       10.7385787400        1.7355905076
  C        14.4252513952        9.3261149936        3.8935323746
  C        15.3396039764       10.2883629609        4.3818591480
  C        15.3674611405       10.6643020185        5.7292869135
  C        14.5888693226        9.9205506790        6.6332085415
  C        13.6677294558        8.9773796131        6.2202680635
  C        13.6129003138        8.6739500870        4.8584678837
  H        12.3810621713       10.3075406470        3.4617058958
  H        10.4129179184       11.1624451027        2.3547204718
  H        16.0811609878       10.7888942769        3.7657538515
  H        16.1716199414       11.2742986461        6.0385205690
  H        14.6842416481       10.0824665763        7.7320524023
  H        13.0852609304        8.4088205540        7.0098611255
  H        12.9683384172        7.8284559258        4.5696958874
  C        15.3425904578        8.2277354576        0.3018786608
  C        16.4230142657        7.6849075015       -0.3570742308
  C        17.5259107571        7.0917849309        0.2511135328
  C        17.4985368804        7.0513664320        1.6875201413
  C        16.4561592804        7.5739225912        2.4338093533
  C        13.1447197547        9.3219590892        0.3162958386
  C        14.3074675542        8.8327462791       -0.4136603718
  C        14.3762319140        9.2352722872       -1.8053285937
  C        15.2419810760       10.2775361451       -2.0917676980
  C        15.3473338101       10.8785414765       -3.3305054441
  C        14.5185409895       10.3895676385       -4.3808914726
  C        13.7257230565        9.3103825433       -4.0853325701
  C        13.6295525641        8.6404422794       -2.8281657489
  H        13.0696368068        7.6967250779       -2.5426911724
  H        13.1964494157        8.9235325208       -5.0082923648
  H        14.6131371746       10.6820709586       -5.4367365611
  H        16.1186832106       11.6273084579       -3.5143749425
  H        15.9531202381       10.7198125392       -1.3946400513
  C        12.0645650433        9.8777592600       -0.3649948986
  C        11.0664845077       10.5562365506        0.2983241349
  H        10.2478054793       10.9584117622       -0.2897159403
  H        12.0468531809        9.8281385173       -1.4453491960
  C        16.4909822972        7.2643353089        3.8871556978
  C        15.6621049033        6.2425262922        4.4156679864
  C        15.7905914864        5.6720093633        5.6697038064
  C        16.7335736274        6.2259505689        6.5738703691
  C        17.4948858682        7.2876003549        6.1397049939
  C        17.4000387687        7.7972502075        4.7907321307
  H        18.2081259556        8.4822975654        4.5169089510
  H        18.2423715437        7.8357744668        6.7338770595
  H        16.7725311945        5.7362640182        7.5531604027
  H        15.1429360538        4.8149090088        5.8882598912
  H        14.9601148063        5.7696724012        3.7406652727
  C        18.5560870284        6.3238459362        2.3218275751
  C        19.5920212423        5.7960731085        1.6024210020
  C        19.6495560176        5.8710706926        0.1540724076
  C        18.6510558822        6.5080882237       -0.5040092271
  H        18.3804599242        6.4531693219       -1.5611791330
  H        20.4447232157        5.4435754031       -0.4423107153
  H        20.4777437098        5.4165127862        2.0983528519
  H        18.5314772525        6.0984146426        3.3711846428
  C        16.3604302263        7.3703470942       -1.8369362476
  C        15.5445255763        6.2570018900       -2.2363828915
  C        15.5201529676        5.7682657048       -3.5500941696
  C        16.2017410697        6.4388542768       -4.6099664436
  C        16.9879239625        7.5473072665       -4.2156567508
  C        17.1257156995        7.9107981105       -2.8782324037
  H        17.8540468049        8.7238101449       -2.5503785799
  H        17.6412484777        8.0133501630       -4.9998817177
  H        16.1168458863        6.3196180589       -5.6762532960
  H        14.8504583025        4.9159339815       -3.7931498871
  H        14.9643984575        5.6931364321       -1.5126688288
