140

  C         3.5682976453        0.2652586340       14.4511508461
  C         4.6008587797        0.9802138295       15.1820638368
  C         5.6726572859        1.5713036043       14.4415853741
  C         6.7658924532        2.2414484430       15.1716915075
  C         7.7775824660        2.8449486562       14.4559504784
  C         4.4624548526        1.3852277554       16.5944632709
  C         3.4359197978        2.3942878770       16.8135446679
  C         3.1604770435        2.8444960116       18.1451658732
  C         3.9436355467        2.3327105818       19.1754009742
  C         4.9189864512        1.3627935906       18.9881488756
  C         5.2372583996        0.9473953400       17.6911066803
  H         6.8588817468        2.2995252976       16.2628436207
  H         8.6169542093        3.2735370357       15.0192849290
  H         2.8424697920        2.6884602744       15.9537782833
  H         2.4374777972        3.6138863353       18.3153480953
  H         3.5809012133        2.7008036331       20.1481017514
  H         5.4341859042        1.0327662064       19.9064080133
  H         5.8750623849        0.0444268442       17.4965085301
  C         3.5224104832        0.3986119703       12.9957683307
  C         2.5486470832       -0.3643119696       12.3146110165
  C         1.3946956798       -0.9077539137       12.9364965603
  C         1.3494687957       -0.9427529309       14.3712830759
  C         2.4785337285       -0.4506176760       15.0582338217
  C         5.6643697919        1.6079100871       13.0161203462
  C         4.6343691710        0.9803045142       12.2887461725
  C         4.6218757243        1.2848393436       10.8370418974
  C         3.7361429158        2.3194754708       10.3664285994
  C         3.8386859664        2.7031278851        9.0298728642
  C         4.8878483629        2.3119874329        8.1643048791
  C         5.7158265070        1.2595102909        8.6535894759
  C         5.5656569064        0.6920976725        9.9208444204
  H         6.2182977889       -0.1435553604       10.2505219180
  H         6.5242007385        0.8364981906        8.0894451265
  H         4.8882716400        2.4859425566        7.1051840254
  H         3.1383045671        3.4839704171        8.7530878347
  H         3.1415148929        2.7320522584       11.1373231302
  C         6.7331162046        2.2675633506       12.3658097856
  C         7.7497414318        2.8892005929       13.0440678390
  H         8.6634724437        3.2530550252       12.5338945693
  H         6.8522531182        2.2352037816       11.2838031041
  C         2.5287438929       -0.7139026899       16.5360570976
  C         3.3964029635       -1.7252966059       16.9922962731
  C         3.3323040837       -2.1596896829       18.3551713563
  C         2.3832187223       -1.6501378106       19.2037413919
  C         1.6112461760       -0.5505591576       18.8059868709
  C         1.6449892945       -0.1111132241       17.4612964187
  H         0.8182460578        0.5809416579       17.1625696820
  H         0.9260508205       -0.2069240812       19.5075989781
  H         2.2652987988       -1.9655184206       20.2997039790
  H         4.0599176120       -2.9202787798       18.6913875071
  H         4.1455569175       -2.0903520242       16.2902860753
  C         0.2979431958       -1.6494677089       14.9381312553
  C        -0.7525955645       -2.2406345735       14.2088658655
  C        -0.7617907230       -2.1649481981       12.7719880527
  C         0.3580084249       -1.5610694592       12.1893284877
  H         0.4224948045       -1.4704134790       11.0922441652
  H        -1.5116129501       -2.6860636338       12.2741874466
  H        -1.4758188022       -2.8486021172       14.8017682219
  H         0.3295334648       -1.7461111205       16.0620336281
  C         2.7608871107       -0.8966827905       10.9638281478
  C         3.5737796318       -2.0873580669       10.7853882925
  C         3.7707293981       -2.6832162745        9.5162304651
  C         3.2135381051       -2.0517337801        8.4011170069
  C         2.3970908548       -0.9641561968        8.5216534363
  C         2.1277049387       -0.3955356055        9.8184189774
  H         1.4676044216        0.4619804894        9.9105276266
  H         1.8603325039       -0.5775738281        7.6852355896
  H         3.3503954298       -2.4870058099        7.3987692687
  H         4.4272166621       -3.5899194338        9.3983595260
  H         3.8394034126       -2.5205622023       11.7491349205
  C        10.7379079231       -0.2397534463       14.6575058193
  C        11.6525800418        0.6076259895       15.3782661663
  C        12.7621677832        1.1919595458       14.7276546092
  C        13.7729246856        1.8996337289       15.4666341535
  C        14.7635831365        2.5496904375       14.7770586616
  C        11.5724677326        0.9123277700       16.8216781558
  C        10.8694938998        2.0250037386       17.2078096183
  C        11.0285842727        2.6091411979       18.4664963360
  C        11.9264237120        2.0458997074       19.3912913452
  C        12.6034591441        0.8786098762       19.0483980623
  C        12.4770291529        0.3672255176       17.7797206629
  H        13.7876694211        1.9426438103       16.5215867531
  H        15.6102134372        2.9328248628       15.2810017474
  H        10.2629987752        2.4880790687       16.4253205585
  H        10.4669327697        3.4745133994       18.7513926770
  H        12.0549249081        2.5570376088       20.3669056913
  H        13.3788105806        0.6100639898       19.7601407356
  H        13.0315024073       -0.5624628745       17.6100406337
  C        10.6963559207       -0.0492288982       13.1902927178
  C         9.6082750620       -0.5616793180       12.4679579165
  C         8.6021467903       -1.3567945149       13.0980635661
  C         8.5812203188       -1.5169546169       14.5426239931
  C         9.7210705395       -0.9542298002       15.2811287578
  C        12.7999742259        1.2098329954       13.2271135114
  C        11.7308534995        0.7141947454       12.5616335811
  C        11.6675808560        1.1554239285       11.1583386531
  C        11.0840739303        2.4555158552       10.9294009536
  C        10.9506229820        2.9249729227        9.6463646596
  C        11.5494321254        2.2300393352        8.6046084572
  C        12.2212150383        0.9804713267        8.8056999790
  C        12.3309800210        0.4641851765       10.0933232644
  H        12.8422101287       -0.4774601158       10.3665243912
  H        12.8823832165        0.6645886317        8.0258236306
  H        11.5243991327        2.6457917645        7.6340542442
  H        10.4682298403        3.9258274633        9.4389092254
  H        10.5990309972        2.9962993294       11.6909087773
  C        13.8518051533        1.9380739932       12.5953080347
  C        14.8611973928        2.4603976407       13.3718651545
  H        15.6523042408        2.9958509799       12.8705991207
  H        13.7745655782        2.1653548563       11.5482285623
  C         9.5704731760       -1.1869219256       16.7582775603
  C        10.2816891272       -2.1568304061       17.4200000486
  C        10.0189348314       -2.4565396256       18.7527575537
  C         9.0460218729       -1.7266176496       19.4333194937
  C         8.3318326795       -0.7122344741       18.7758944706
  C         8.6153732132       -0.4101359149       17.4385147679
  H         8.0463650868        0.3643434133       16.9334591939
  H         7.5737770620       -0.1265881256       19.3089340284
  H         8.7859657514       -2.0480206404       20.4733134725
  H        10.5641368555       -3.2407126709       19.2322586168
  H        11.1011732601       -2.7061196298       16.9728780786
  C         7.4084639428       -2.1619746000       15.0877066122
  C         6.4228739964       -2.7914804695       14.4269255597
  C         6.5052936355       -2.7633922693       13.0257423678
  C         7.5840180616       -2.1230362740       12.3840971008
  H         7.6946679161       -2.1799194067       11.2933423988
  H         5.8931019440       -3.4145986692       12.4250788197
  H         5.6058399613       -3.2291108555       14.9764104519
  H         7.2991708321       -2.1560130572       16.1906537396
  C         9.6798816103       -0.7759076650       10.9833380142
  C        10.3968657956       -1.8731184602       10.4968001189
  C        10.3271348992       -2.3459920846        9.1840767561
  C         9.5539084869       -1.6316969674        8.2508802773
  C         8.7181663193       -0.6159391901        8.7156594035
  C         8.8524693773       -0.1335270953       10.0165240620
  H         8.3227072037        0.7334333435       10.3502977059
  H         8.2006973923       -0.0393260734        7.9321435703
  H         9.4306093947       -2.0147519937        7.2451489589
  H        10.8137318093       -3.2786536663        8.8551995266
  H        10.9398117230       -2.5463052749       11.1669250289
