140

  C        12.7073543542        7.1859900840        2.6708616181
  C        11.7124164034        7.9323066322        3.3763829271
  C        10.5512844100        8.4198752241        2.6627971119
  C         9.5485290257        9.2512397407        3.3112782634
  C         8.4064382405        9.6691923728        2.7061432762
  C        11.8109000498        8.2567346228        4.8255190867
  C        12.5738011765        9.3774490372        5.2651237683
  C        12.6306153478        9.8164875274        6.6140230770
  C        11.7162681685        9.1892018533        7.4564991394
  C        10.8638035584        8.1732541042        7.1136308024
  C        10.9307772597        7.6424983808        5.8097498026
  H         9.6872610071        9.4182643778        4.3674554915
  H         7.7122992314       10.2938129856        3.2501910268
  H        13.2407928666        9.8889394528        4.5323170410
  H        13.0979715475       10.7874485126        6.8968586834
  H        11.6741664490        9.5505538143        8.4901716222
  H        10.1785680384        7.8056349329        7.8780568953
  H        10.2426782402        6.8262699499        5.5446832789
  C        12.5832621474        7.1242005574        1.1734655091
  C        13.6152918091        6.3785267470        0.4501093777
  C        14.6312849471        5.7534992137        1.1604389235
  C        14.6324209431        5.6640525093        2.6367804131
  C        13.5963023795        6.3774219603        3.3585193272
  C        10.4740762043        8.3114101662        1.2399156786
  C        11.5623169584        7.8196830447        0.4931285591
  C        11.6098788490        8.0882540984       -0.9640142172
  C        12.4941672563        9.0162913801       -1.4402664511
  C        12.6053528565        9.3459440239       -2.8142516773
  C        11.7034918946        8.6868210892       -3.7160549263
  C        10.6830032113        7.8287184406       -3.2117446180
  C        10.6882113273        7.4601420153       -1.8589527966
  H        10.0553026287        6.6128711998       -1.5131783911
  H        10.0895935131        7.4185097955       -3.9493738421
  H        11.8338092715        8.9039408696       -4.7562545560
  H        13.4139144134        9.9753875701       -3.1904950177
  H        13.0364341538        9.5942232421       -0.7400379171
  C         9.2870708750        8.8944098692        0.5786252649
  C         8.2151882918        9.4363118694        1.2760439168
  H         7.2637415661        9.5063747556        0.8477112246
  H         9.1908255288        8.7802580140       -0.5005318878
  C        13.4488028027        6.0377272746        4.8830682149
  C        12.3852696384        5.1092105428        5.1153264888
  C        12.3011586625        4.5893289440        6.4132174680
  C        13.1716107868        4.9428595672        7.5091523747
  C        14.1824984085        5.9047323639        7.2276484918
  C        14.3390214991        6.4297138450        5.8923018091
  H        15.1707177343        7.1062075897        5.7380458145
  H        14.8631285260        6.3031678763        7.9091424836
  H        13.1630711039        4.4137383178        8.4470048802
  H        11.5593900537        3.8151660754        6.5894551108
  H        11.7439715497        4.8420124141        4.2995976685
  C        15.5770436425        4.8975964258        3.2753944245
  C        16.6135232910        4.2252152067        2.6687328035
  C        16.6232137701        4.2155058888        1.1852861806
  C        15.6999169286        5.0020130927        0.5429359301
  H        15.6844945729        4.9124160507       -0.5430848564
  H        17.5142918578        3.8924167915        0.6648566762
  H        17.2786830599        3.5156572350        3.1372116272
  H        15.5527051075        4.9265568517        4.3715661923
  C        13.5294830969        6.0757696054       -1.0319570941
  C        12.6020590585        5.0234688721       -1.4355825275
  C        12.5736580034        4.5718233928       -2.7711115141
  C        13.4501842862        5.1683539708       -3.7078379855
  C        14.3741293738        6.1643392265       -3.3000384342
  C        14.3994280070        6.5752734889       -1.9910098500
  H        15.1208391638        7.3561843676       -1.6253700880
  H        15.1066865003        6.4659052650       -3.9606728415
  H        13.4369454902        4.8067528912       -4.7464391743
  H        11.9024223230        3.8031072012       -3.0508432037
  H        11.8710123172        4.6461443220       -0.7001120275
  C        19.7942129095        6.9061626216        2.6018059835
  C        18.6816837436        7.5865030360        3.2492989839
  C        17.6450249782        8.2730458177        2.5363185745
  C        16.5320639932        8.9713164643        3.1327617965
  C        15.6165570939        9.5440510657        2.3157777231
  C        18.7740160589        7.8482156373        4.7255534229
  C        19.5170563540        8.9794813004        5.2041500152
  C        19.4067344007        9.3771119981        6.5076611483
  C        18.4655109841        8.8206500597        7.3658229560
  C        17.6565740702        7.7531056431        6.9188124283
  C        17.8636702283        7.3032313389        5.6052891187
  H        16.4357394969        9.0007886688        4.1923771015
  H        14.6626781458        9.8867328644        2.7873330422
  H        20.2488369878        9.4283512114        4.4992072134
  H        20.0633235500       10.2499961000        6.8151558177
  H        18.2942294964        9.2520561390        8.3390715913
  H        16.9783374072        7.3067387372        7.6016065538
  H        17.2768298653        6.4578380791        5.2386840908
  C        19.8734207168        7.0030197067        1.0892396212
  C        20.9687836231        6.3466141211        0.5097542939
  C        22.0768540052        5.9154401371        1.3085888292
  C        22.0474380899        5.9110534370        2.7477956785
  C        20.7877083039        6.3414914996        3.4013208687
  C        17.7416889829        8.2617182698        1.0752357186
  C        18.8912366778        7.7131582618        0.3292426605
  C        18.9244885372        7.8295467698       -1.1487627078
  C        19.6711026088        8.8532856799       -1.7498470945
  C        19.3545502389        9.2495328960       -3.0991417796
  C        18.5499073924        8.4185354834       -3.8657273344
  C        17.7371649919        7.4660749637       -3.2034365149
  C        17.9152044328        7.1415547462       -1.8828835588
  H        17.2937849904        6.3815395423       -1.4273401621
  H        16.9299542159        6.9660637651       -3.8062005413
  H        18.3081985510        8.5210653914       -4.9302028561
  H        19.9348993463       10.0818602186       -3.4724475420
  H        20.4102893337        9.4843099662       -1.2201482464
  C        16.7088718489        8.8857866113        0.3250331447
  C        15.6395687527        9.4826157017        0.8709983701
  H        14.8780584079       10.0431926593        0.3500790712
  H        16.8188901099        9.0022927165       -0.7187432186
  C        20.6584658295        5.9657960724        4.8157607299
  C        19.9282939642        4.7570217571        5.1247603582
  C        19.9085770993        4.2502924344        6.4209793915
  C        20.6898063502        4.8840742351        7.4309559529
  C        21.4467006146        6.0374380223        7.1226418024
  C        21.3944676999        6.5543945022        5.8126401640
  H        21.9712463144        7.5095397383        5.6666040282
  H        22.1834100830        6.5754224504        7.7815595961
  H        20.6120567040        4.5200562985        8.4452034633
  H        19.1064811842        3.5348681246        6.6773573029
  H        19.4963341758        4.2971386339        4.2321611470
  C        23.0707910510        5.2563461000        3.4858543257
  C        24.0285507289        4.5162365697        2.8062478584
  C        24.0835253944        4.5105292264        1.4373269880
  C        23.2185606198        5.2060131828        0.6584238617
  H        23.2419159803        5.0632171792       -0.3820444467
  H        24.8110734526        3.8496147184        0.9331828341
  H        24.7663443646        3.9499559173        3.3708483503
  H        23.0309169410        5.1633905950        4.5425524580
  C        21.0219882580        5.9312825722       -0.8954393620
  C        20.3286881663        4.7924033568       -1.3034677943
  C        20.3944438065        4.3663115289       -2.6426167830
  C        21.2889280119        4.9889203564       -3.5445238018
  C        22.0655704710        6.1251881490       -3.1386228444
  C        21.8946163800        6.5576621650       -1.8059332911
  H        22.5554099803        7.3459147014       -1.4977001896
  H        22.8829458631        6.4762586364       -3.7673466315
  H        21.4837332187        4.6458122052       -4.6060534027
  H        19.7653774934        3.4985195209       -2.9475901341
  H        19.7608399578        4.1683375139       -0.5671182522
