140

  C        10.7359140042        6.9870575936        1.0608948859
  C         9.7976848136        7.6699147085        1.8830919747
  C         8.6852595755        8.3896873180        1.2987032402
  C         7.8163640481        9.4106150584        1.9255091994
  C         6.7386975364        9.9543199293        1.1980470270
  C         9.9900849500        8.0459700261        3.2859048752
  C        10.9717021554        9.0344364519        3.6698702174
  C        10.9319257700        9.5682611872        5.0567163859
  C        10.0149717896        8.9812969768        5.9107336539
  C         9.1176773026        8.0594979911        5.4992244830
  C         9.1254973261        7.4913980155        4.2039505072
  H         7.8768713948        9.6089138483        2.9784258741
  H         6.1192468088       10.6817485831        1.7226857427
  H        11.6105686391        9.5258414329        3.0099936876
  H        11.5883389466       10.2562949230        5.4386909339
  H         9.9653020970        9.3217088596        6.9253511607
  H         8.2362924686        7.7316325980        6.0940057649
  H         8.3721967392        6.8154649969        3.8983767462
  C        10.5969119284        6.9495683734       -0.4265150798
  C        11.6875089447        6.3760139482       -1.1984088628
  C        12.8423247842        5.8655086064       -0.5823003570
  C        12.9053841422        5.8364490356        0.8794349097
  C        11.7935878502        6.2679257740        1.6750655812
  C         8.5403081872        8.2115855454       -0.2267359093
  C         9.5195795705        7.5859533663       -1.0353453881
  C         9.3479491516        7.8031454551       -2.5097107259
  C         9.9473935766        8.9649408714       -3.0082678992
  C         9.9270273646        9.2345586302       -4.4116721630
  C         9.1744712086        8.3909911099       -5.2372891222
  C         8.3526218610        7.4421368290       -4.7158470621
  C         8.4559687939        7.1111524523       -3.3543908356
  H         8.0730723855        6.1695685158       -2.8947591508
  H         7.6549049770        6.8159799009       -5.2652591167
  H         9.3298010125        8.5938721609       -6.3141647455
  H        10.3592663322       10.1867596619       -4.8313650417
  H        10.4877279709        9.6752562781       -2.3557215656
  C         7.3277893090        8.7703982183       -0.7781943135
  C         6.4577748946        9.5420028328       -0.1144695778
  H         5.5054087755        9.8702045563       -0.5148616965
  H         7.0146366753        8.6052611962       -1.8464153985
  C        11.9246121384        6.0017409706        3.1238853587
  C        11.1046966760        4.9796703317        3.6268050011
  C        11.1630896075        4.7148560301        4.9895232987
  C        12.0290779026        5.4219804125        5.7974592531
  C        12.7495504847        6.4824972461        5.2988437615
  C        12.7894723514        6.7498971419        3.9471633675
  H        13.4288893300        7.5623233296        3.5473741348
  H        13.3680957657        7.1065150854        5.9246386923
  H        12.0732906095        5.1424677475        6.8758223453
  H        10.5516033557        3.9214964660        5.3976304655
  H        10.5952353179        4.3164516513        2.9525960972
  C        14.0045243132        5.1821714085        1.4920439226
  C        15.0283060331        4.5506763118        0.7758158390
  C        15.0060807862        4.5645776824       -0.6441123712
  C        13.8931781260        5.1876029489       -1.2179570990
  H        13.8368744697        5.0335426116       -2.3136779413
  H        15.7346140024        4.1458106708       -1.2836221350
  H        15.8661944330        4.0956305368        1.2394658298
  H        14.0934238609        4.9881376816        2.5485608492
  C        11.5656880926        6.1215730450       -2.6790022250
  C        10.9648216418        4.9337481007       -3.0109963588
  C        10.9496995195        4.4806926445       -4.3031510756
  C        11.6014271465        5.2106541240       -5.3242814949
  C        12.1058343401        6.4557945334       -4.9970647304
  C        12.1537875031        6.9263483108       -3.7032470471
  H        12.6177715999        7.8586310028       -3.5208894038
  H        12.6587420250        6.9387084080       -5.8057254051
  H        11.7128889080        4.8464064387       -6.4386852108
  H        10.5437857239        3.4758208833       -4.4682310921
  H        10.5668378257        4.3867947755       -2.1732602504
  C        18.1083829997        7.2477979842        0.6558112700
  C        17.1538551052        7.9450436825        1.4240475951
  C        15.9212166574        8.4144629741        0.7913187160
  C        14.9582973138        9.0740262668        1.6664809998
  C        13.7253470545        9.4785708790        1.1834125676
  C        17.2338628935        8.2413935775        2.8761001405
  C        17.9269888984        9.3725116104        3.2404262613
  C        17.8917168457        9.8299335458        4.5769769184
  C        17.0159714686        9.2981821905        5.5927286832
  C        16.4208563404        8.0824632415        5.2263852089
  C        16.6740377761        7.5348764131        3.9244738843
  H        15.2694445598        9.2965226148        2.7115683626
  H        13.0621426455       10.0584208186        1.8571071254
  H        18.6720614435        9.7761325650        2.5609033588
  H        18.5211128974       10.7172253782        4.7312781046
  H        16.9872120659        9.7147747841        6.5859441830
  H        15.8976395932        7.4824819548        5.9799792867
  H        16.4646724372        6.4959733770        3.6342639344
  C        17.8987940452        7.2337934779       -0.7757071332
  C        18.8543182844        6.4548589267       -1.5217222470
  C        20.0397157951        5.8301125789       -0.9188602772
  C        20.2234554514        5.9069780930        0.5015417776
  C        19.1760223398        6.5000954720        1.2499175450
  C        15.7224606875        8.4505871739       -0.5808397383
  C        16.7617389931        7.8991999131       -1.3778274014
  C        16.7672868798        8.2400646570       -2.8353109275
  C        17.7692713183        9.2173232938       -3.2413420988
  C        17.9402970001        9.5234397426       -4.6031995802
  C        16.9472891405        9.0453678910       -5.5194658432
  C        15.9267390884        8.2226609205       -5.0953177081
  C        15.9281316621        7.7396887909       -3.7809159318
  H        15.2547189149        6.9473378001       -3.4573516572
  H        15.2112373514        7.9116779467       -5.8833157883
  H        17.0504292215        9.3371126703       -6.5511010621
  H        18.6846372906       10.1546659956       -5.0168226365
  H        18.5009588816        9.5894120715       -2.5177274512
  C        14.4478088516        8.9744092938       -1.0739690184
  C        13.4440128384        9.3565545921       -0.2034004934
  H        12.4748716117        9.7036978163       -0.5832283050
  H        14.2037275756        8.9746895590       -2.1615829463
  C        19.2890900646        6.2361003873        2.7289725193
  C        18.6005939879        5.1431684363        3.2478899978
  C        18.6546678159        4.9375826227        4.6490243725
  C        19.4075370294        5.7492245380        5.5012178550
  C        20.0251488706        6.8652697729        4.9375936427
  C        20.0831371154        7.0344956055        3.5747334542
  H        20.6146328426        7.9141468217        3.1544934499
  H        20.5944523869        7.4825098290        5.6282765433
  H        19.4661937160        5.5803512991        6.5720768129
  H        17.9355645697        4.2104545307        5.0630765036
  H        17.9760680454        4.5078936816        2.6702121416
  C        21.2751729195        5.2192215185        1.1640627699
  C        22.2373584233        4.6772980288        0.3462059790
  C        22.0104730572        4.4488586290       -1.0295943916
  C        20.9218089798        5.0336050751       -1.6883109665
  H        20.7089445487        4.8652946932       -2.7586664608
  H        22.7007977393        3.7557122741       -1.5288864419
  H        23.1333346202        4.2322630737        0.8205166240
  H        21.4615991602        5.3547790253        2.2271163657
  C        18.7661943058        6.2205111561       -2.9952615547
  C        17.9699037735        5.1582308741       -3.4954399234
  C        18.2585490631        4.5597597728       -4.7101256876
  C        19.3828120075        4.9997943588       -5.4477361241
  C        20.0794378887        6.1940418206       -5.0643847219
  C        19.7538089383        6.7662869014       -3.8064839878
  H        20.2324195682        7.6471152147       -3.4479370894
  H        20.7836773332        6.6549178091       -5.7901256189
  H        19.6538209118        4.5562672785       -6.3796997576
  H        17.8513631493        3.5989473989       -4.9405543958
  H        17.2347482313        4.6670531234       -2.8744527902
