140

  C         3.5478095448       -0.0585864133       14.6328363135
  C         4.5233925695        0.6722346546       15.3365104825
  C         5.5836760725        1.3469972374       14.7347093673
  C         6.6141431885        2.0068809302       15.4381281422
  C         7.6550220295        2.6315366178       14.8615957373
  C         4.3146070274        1.0327367003       16.7943129098
  C         3.4014298146        2.0222922781       17.1511317462
  C         3.3840470021        2.6257193197       18.4044223670
  C         4.1511512422        2.0261076088       19.4235798481
  C         5.0077151096        0.9568700496       19.1555184455
  C         5.1318143740        0.5184961726       17.8158273255
  H         6.5491800739        1.9583121665       16.5294693540
  H         8.4651840812        2.9612976682       15.4848822516
  H         2.7119874148        2.4391118973       16.4407042788
  H         2.5749048551        3.3463174354       18.7020522721
  H         4.0044324899        2.4724850232       20.4137069427
  H         5.6382388240        0.5453095661       19.9686356790
  H         5.9250597274       -0.1432385107       17.5223334387
  C         3.6383608364       -0.0293595410       13.1589136745
  C         2.6346123545       -0.7243000979       12.4046133400
  C         1.5321165000       -1.2797238171       13.0229134140
  C         1.4450663390       -1.3450909492       14.4592391111
  C         2.4811629613       -0.8277055709       15.2494398060
  C         5.6380920246        1.4023021209       13.2259078696
  C         4.6465432412        0.7684436806       12.4955237361
  C         4.6546234286        1.0987872852       11.0444841283
  C         3.9602564946        2.2241084115       10.6172056444
  C         4.0068051139        2.6990803553        9.2665415545
  C         4.7962508965        2.0068878775        8.3160122434
  C         5.3274392777        0.7251863890        8.6868618894
  C         5.2822524344        0.3547214243       10.0609636118
  H         5.6892209905       -0.6061374313       10.2401433792
  H         5.9457344853        0.1632318264        8.0081565277
  H         4.9094000429        2.4674816159        7.3185241149
  H         3.4872966571        3.6108649908        9.0267630440
  H         3.4357202765        2.7795984675       11.3763458149
  C         6.7627702788        2.1261751635       12.6845601291
  C         7.7484045364        2.7090968157       13.4393520973
  H         8.5699001032        3.2769973130       12.9961662536
  H         6.8044244429        2.1437738853       11.5992561818
  C         2.5867283283       -1.0945305482       16.7128454370
  C         3.5605160811       -1.9373765501       17.2978494674
  C         3.4795006309       -2.3291678116       18.6621109700
  C         2.5551708399       -1.7791881024       19.5344709578
  C         1.5660075586       -0.8981096520       19.0120911794
  C         1.5585894318       -0.6380020237       17.6197133793
  H         0.7344525371        0.0250876103       17.3075463154
  H         0.8050519744       -0.5270465480       19.7225744553
  H         2.5795391521       -2.1444374858       20.6046080747
  H         4.1818811479       -3.0903800829       18.9758290735
  H         4.3340497366       -2.2107769620       16.5028590566
  C         0.3268965956       -2.0598789374       15.0351438360
  C        -0.7328450174       -2.4365861297       14.2968118756
  C        -0.6954173589       -2.3695925001       12.8917043795
  C         0.4247389070       -1.8570665685       12.2730807419
  H         0.5660125687       -1.8027072619       11.2024227118
  H        -1.5414080682       -2.7184496158       12.3981676899
  H        -1.6040062809       -2.9737443438       14.7701216740
  H         0.3565471661       -2.3678025842       16.0968214607
  C         2.6713114852       -1.0092825671       10.9539019041
  C         3.3320399691       -2.2032689824       10.5556606134
  C         3.2437575706       -2.7640061107        9.3189489966
  C         2.4952728138       -2.1377854315        8.2757914191
  C         2.0233841432       -0.8329972289        8.6060630538
  C         2.0391168919       -0.3487887496        9.9428332905
  H         1.5581165705        0.6756684106       10.0892342178
  H         1.4838395651       -0.2349482066        7.8825028723
  H         2.4057218586       -2.5686556860        7.3220745450
  H         3.6645169729       -3.7960605178        9.1475888739
  H         3.8234939521       -2.7060489853       11.3936238833
  C        11.0790982409        0.1606962837       15.0266352236
  C        12.0455896212        0.9388065207       15.7037338973
  C        13.1743192849        1.4332381462       15.0087035079
  C        14.2978508535        2.0703830227       15.6381475348
  C        15.3636332502        2.6423770021       14.9820545436
  C        11.8023205106        1.2252857916       17.1935869744
  C        10.8617761768        2.2709426524       17.3766314754
  C        10.8082654343        2.8509652570       18.6155513026
  C        11.5298278777        2.3209460439       19.7065765440
  C        12.3355634007        1.1877909401       19.5938893620
  C        12.4735706832        0.6915210327       18.2717863050
  H        14.2951407881        2.1145685567       16.7057239506
  H        16.0541082737        3.2598457486       15.4747824172
  H        10.2412980264        2.6582417005       16.5522936707
  H        10.2891868129        3.7974889668       18.7023437452
  H        11.3699433589        2.8456677527       20.6739234503
  H        12.9331657188        0.7818102155       20.4269657902
  H        13.2322598908       -0.0528524566       18.0699624028
  C        10.9630950307        0.2283977663       13.5544283159
  C         9.9190028010       -0.4749320290       12.8541500843
  C         8.8019318818       -1.0197436177       13.5730937936
  C         8.9060934907       -1.1257265927       15.0328021374
  C        10.0594961039       -0.5368992815       15.7050908982
  C        13.0605320210        1.4952600649       13.5909720527
  C        11.9719404176        0.9874598829       12.8674247304
  C        11.8238477574        1.3029599283       11.4017304051
  C        10.9431217881        2.3471959211       10.9477708164
  C        10.8160745401        2.8347247432        9.6694757615
  C        11.5540621687        2.1681124324        8.6586869697
  C        12.4464530434        1.1923876183        9.0810854260
  C        12.6495782492        0.8656622827       10.4026567972
  H        13.5744088473        0.3155298311       10.6863841792
  H        13.0486110856        0.6928652972        8.3368828467
  H        11.5373130966        2.5832289382        7.6162804608
  H        10.1720902125        3.6786821998        9.4323764001
  H        10.3803461173        2.8529380256       11.7376376347
  C        14.1483019302        2.2329994684       12.9414108110
  C        15.2871532420        2.6846212426       13.5575265855
  H        16.0229953924        3.2823635162       12.9963916394
  H        14.0788364046        2.4565403214       11.8502058592
  C        10.2198972307       -1.0506906580       17.0885017262
  C        11.0641316041       -2.1326439488       17.3641551625
  C        11.1291065132       -2.6688298422       18.6312564383
  C        10.2555761560       -2.1868114192       19.6433130328
  C         9.5752229290       -0.9993227347       19.4341635082
  C         9.5753670409       -0.4738742433       18.1602399394
  H         8.9784246720        0.4033968046       18.0036410131
  H         8.9512944625       -0.5327949423       20.2059197959
  H        10.4195311882       -2.5927337366       20.6504396962
  H        11.7004742160       -3.5758733280       18.7594533043
  H        11.6409527107       -2.5967998071       16.5470409596
  C         7.8456242230       -1.7339438731       15.7554176732
  C         6.8078083810       -2.3072079519       15.0770561908
  C         6.7581720031       -2.3408522641       13.6968371777
  C         7.7190674855       -1.6860119018       12.9560343468
  H         7.7460426478       -1.6565200025       11.8679448963
  H         5.9777734390       -2.8571261178       13.1653071683
  H         6.0953037760       -2.8603606478       15.6791917898
  H         8.0008995273       -1.6946928859       16.8421124379
  C        10.0686628824       -0.8961906972       11.3943423225
  C        11.1065249844       -1.8011957217       11.1156366674
  C        11.1967632300       -2.4148060118        9.8391070346
  C        10.3169348568       -1.9768787453        8.7843675813
  C         9.3900515839       -0.9182788906        9.0293258890
  C         9.2426920275       -0.4041469097       10.3816662416
  H         8.4376433038        0.3076262250       10.6091147393
  H         8.8432191054       -0.5916432008        8.1550583163
  H        10.3773528707       -2.3616048028        7.7533607724
  H        11.8342910316       -3.2825628011        9.6891129255
  H        11.7808576381       -1.9552433588       11.9415249677
