140

  C        10.8044646007        7.2948082498        1.3000152915
  C         9.7909837004        8.0715822204        2.0267556712
  C         8.7377791567        8.6256178302        1.2922217122
  C         7.6777303762        9.3348428387        1.9931880453
  C         6.5916642870        9.7909490391        1.2655662177
  C         9.8298118032        8.3546261959        3.5077974366
  C        10.5555711885        9.4431243161        3.9942253591
  C        10.6000839728        9.7802764990        5.3537079169
  C         9.7773979157        9.0401564212        6.2451070809
  C         9.0170124463        8.0808202433        5.7391008926
  C         8.9764480519        7.6579727196        4.4046873211
  H         7.7106942017        9.4165881688        3.0658366985
  H         5.7262448250       10.1570363339        1.7568166829
  H        11.1775980032        9.9065037881        3.1962881734
  H        11.2674097998       10.4951032219        5.7118591490
  H         9.8394497959        9.0896190713        7.2847472758
  H         8.2481027219        7.6098573486        6.4534978433
  H         8.4496004413        6.8345767552        4.0988119313
  C        10.7539377274        7.2643970563       -0.2453772225
  C        11.6663555087        6.4785961488       -0.9594736650
  C        12.8324141609        5.9209536207       -0.2099234849
  C        12.8323104080        5.9305691571        1.2216269372
  C        11.7786761548        6.5315037121        1.9417989515
  C         8.6782473681        8.6344833329       -0.1912131804
  C         9.6537772343        7.9843856496       -0.9425127239
  C         9.6882381476        8.3528959429       -2.3961535814
  C        10.2968116440        9.5169626493       -2.7782899547
  C        10.2439264983        9.9302734306       -4.0802675841
  C         9.4391165461        9.2200679864       -5.0004526928
  C         8.8459199035        8.0302573109       -4.6063277707
  C         9.0313204636        7.5817223575       -3.3255006709
  H         8.5485127508        6.6918096731       -3.0056777007
  H         8.1933443147        7.4407921540       -5.2863434989
  H         9.3080325685        9.5972190198       -6.0259391799
  H        10.7432973847       10.8604868509       -4.4521307806
  H        10.6725813118       10.1876409633       -2.0011111091
  C         7.5475721284        9.1856049934       -0.8215995375
  C         6.4632286861        9.6769067507       -0.1085467334
  H         5.4746626887        9.9059233907       -0.4506806140
  H         7.4383560963        9.2264063862       -1.8749889193
  C        11.7921416082        6.1464517610        3.4246784639
  C        11.0241439134        5.0456115143        3.7755394441
  C        11.1450187988        4.4780361913        5.0052332491
  C        11.9996256327        5.0367368613        5.9316336102
  C        12.7176134082        6.2097926679        5.6649165679
  C        12.6436258633        6.7445171851        4.3765803754
  H        13.1978531209        7.6290972107        4.0694361185
  H        13.3067195206        6.7544305531        6.4179675213
  H        12.0041392244        4.6918588464        7.0039208057
  H        10.6164123609        3.5785701358        5.2703091590
  H        10.3945058531        4.5733460543        3.0362826924
  C        13.8382399623        5.1800851314        1.9146035056
  C        14.9522850185        4.6752686160        1.2680071774
  C        15.0219360423        4.7210940472       -0.1390799626
  C        13.9864295918        5.2626496815       -0.8477816712
  H        13.8946035183        5.2538127941       -1.9247635711
  H        15.7791136622        4.2311698602       -0.7455428254
  H        15.7070079960        4.0895588565        1.7759782024
  H        13.9246501173        5.0499206840        2.9895056552
  C        11.6597361425        6.1696009147       -2.4337863777
  C        10.7782803099        5.1263086423       -2.8200442292
  C        10.7859660013        4.6584547173       -4.1638891475
  C        11.6472718178        5.2938597383       -5.0670000475
  C        12.5110903996        6.3144710230       -4.6434208950
  C        12.4941065349        6.7562580360       -3.3306326022
  H        13.1659409680        7.5480310210       -3.0281199059
  H        13.1650781809        6.8770280720       -5.3233568815
  H        11.8076399833        4.8162643022       -5.9854937599
  H        10.2066047628        3.8321184902       -4.5029001143
  H        10.0898896480        4.6926859783       -2.1111135150
  C        17.7105641972        7.3768588734        1.0625233685
  C        16.6312696963        8.0462399365        1.7666193024
  C        15.5378106299        8.5481715651        1.0467918679
  C        14.3658131640        9.1142646071        1.7682694405
  C        13.2549816690        9.4898638193        1.0628942790
  C        16.7821294043        8.4261878608        3.1956524883
  C        17.6236119417        9.4983918173        3.5198126068
  C        17.9050292949        9.7323468165        4.9062866368
  C        17.1056609146        9.0942331925        5.9503713476
  C        16.0419075138        8.2403636513        5.5600330117
  C        15.9229210139        7.8935734813        4.1739702960
  H        14.3100292302        9.0962691288        2.8753257995
  H        12.3506637707        9.7520396803        1.6156989083
  H        18.1081568775       10.0978374097        2.7957684820
  H        18.5855325106       10.5848041195        5.2159915062
  H        17.3497537171        9.1280324438        7.0313261305
  H        15.4487845084        7.8139633366        6.3865814893
  H        15.1749226549        7.1167091430        3.8575109761
  C        17.8188568759        7.4356545925       -0.3774382583
  C        18.8216757995        6.6930190632       -1.0711113094
  C        19.8964043279        6.1604728445       -0.3634858989
  C        19.9453694559        6.2608113754        1.1179121881
  C        18.7959565026        6.7855628854        1.8108489845
  C        15.6132855375        8.6251965265       -0.3567945955
  C        16.7663645253        8.1998551747       -1.0722670636
  C        16.7880803656        8.4280164986       -2.5654353887
  C        17.3882234458        9.6165296192       -3.1269555628
  C        17.2128991811        9.8722964981       -4.4948362215
  C        16.2844395219        9.1461738488       -5.3336952806
  C        15.5598203781        8.0937041915       -4.6977505272
  C        15.8854955424        7.7370982979       -3.4022315600
  H        15.2522292312        7.0221059161       -3.0274084176
  H        14.8046732568        7.5256734651       -5.2397424800
  H        16.2249651440        9.3952470003       -6.4109463868
  H        17.7027143584       10.7549308945       -4.9335692644
  H        18.1232480206       10.1979665707       -2.5784762346
  C        14.4839142097        9.3189161175       -1.0116022766
  C        13.3314127996        9.6101729822       -0.3221021317
  H        12.5766250342       10.1328892868       -0.9157796964
  H        14.5299955898        9.5007129391       -2.0744945297
  C        18.7315202143        6.6287329706        3.3019172192
  C        17.8442138244        5.7299026450        3.8738794766
  C        17.9205543162        5.3023001774        5.2265664365
  C        18.9054137563        5.9145845079        6.0998277514
  C        19.7799450517        6.8386635758        5.4780135663
  C        19.6743045296        7.2433687987        4.1439515225
  H        20.3011513915        8.0314519709        3.7164153914
  H        20.4975236585        7.4072817367        6.0587359338
  H        19.0507263538        5.6300268953        7.1228400085
  H        17.2773144716        4.5611267274        5.6593653885
  H        17.1066477631        5.2594820588        3.2221411579
  C        21.0650538497        5.7087912674        1.8181851913
  C        22.0336900492        4.9523642944        1.1220327996
  C        21.9957258409        4.8672190231       -0.3054282147
  C        20.9738403040        5.4540786748       -1.0465474817
  H        20.7997151064        5.1843099469       -2.1160411359
  H        22.8388494594        4.3532737025       -0.7579076550
  H        22.9009039943        4.4993440400        1.6662648242
  H        21.0788200118        5.7072627518        2.9263517975
  C        18.8454203106        6.4390950301       -2.5541094551
  C        18.0345599177        5.4673315110       -3.1098067645
  C        18.2777600174        4.9268665845       -4.3962657848
  C        19.2523785048        5.5174520590       -5.1901958199
  C        20.0772898487        6.5794543939       -4.6729825919
  C        19.8855280803        7.0325890753       -3.3732538183
  H        20.5296086994        7.7303072315       -2.8447442517
  H        20.7255149357        7.0734446874       -5.3649984093
  H        19.4143695403        5.2812797878       -6.2123380170
  H        17.7598076301        4.0821830252       -4.7604878377
  H        17.3313676797        4.9868600801       -2.4516366017
