140

  C         4.2066587666       -0.5575111975       14.0321514683
  C         5.2351680299        0.1042484269       14.7803373294
  C         6.3818630042        0.6191706364       14.0749327051
  C         7.5640648060        1.0404166733       14.8201395889
  C         8.5244439846        1.7700429319       14.1540073039
  C         5.2188917013        0.3247245308       16.2576278578
  C         4.4660348533        1.4128500117       16.6831501952
  C         4.6264153434        1.7830278471       17.9962686198
  C         5.5744920900        1.1254372691       18.8384969575
  C         6.3553872816        0.0594931516       18.3532274952
  C         6.1438846655       -0.3441985526       17.0648925530
  H         7.6452219488        0.9291740266       15.8872036460
  H         9.3985012893        2.0803152889       14.6481198434
  H         3.8488682081        1.9353820939       15.9695425025
  H         4.0721994399        2.6413291735       18.3735410302
  H         5.6105444750        1.4730630567       19.8882354548
  H         6.8941882168       -0.5648248313       19.0470725781
  H         6.6927432263       -1.1303168593       16.5249147409
  C         4.2402310760       -0.5379283934       12.5503224332
  C         3.2548747522       -1.3697570087       11.8419865086
  C         2.0900017316       -1.8965943878       12.5353032406
  C         2.0933267652       -1.8687223459       13.9738619208
  C         3.1547260550       -1.3173427959       14.7136413631
  C         6.3109335965        0.8030225224       12.6428324322
  C         5.2009410163        0.3126908352       11.9216614531
  C         5.0330088652        0.6760534601       10.4643537149
  C         4.3621213566        1.9195420740       10.1455356139
  C         4.1676601029        2.3779999853        8.8061174737
  C         4.8112130558        1.6601263331        7.7957185970
  C         5.5940230556        0.5279650747        8.1207424753
  C         5.7655920181        0.1103189730        9.4553221948
  H         6.3543119768       -0.7679137964        9.7134702192
  H         6.1556250810        0.0056109996        7.3194708142
  H         4.8412139853        1.8662927663        6.6962895288
  H         3.5671136361        3.2699431976        8.6283716246
  H         3.9101034974        2.4860224543       11.0052511852
  C         7.3560084221        1.6169361431       11.9874144154
  C         8.4799448545        1.9642578590       12.7171226932
  H         9.2265173470        2.4334116557       12.1530377921
  H         7.1426243613        1.7732680311       10.9312461740
  C         3.3549739473       -1.6357355928       16.1694884181
  C         4.1855832890       -2.7398543355       16.4631099759
  C         4.2858298338       -3.1225533617       17.8001917748
  C         3.4665921556       -2.6135134010       18.7966839625
  C         2.5390677585       -1.6219095693       18.4350411715
  C         2.5442679699       -1.1384456688       17.1788388685
  H         1.8422238409       -0.2970307326       16.9422875368
  H         1.9778959825       -1.1581168785       19.2509336891
  H         3.4635205706       -3.0398043762       19.8191827308
  H         5.1025448204       -3.7836173354       18.0572824683
  H         4.8203789586       -3.1153469038       15.6937206202
  C         0.9531701735       -2.5089428457       14.5459636463
  C         0.0330385947       -3.3114478611       13.8668864878
  C         0.0730541158       -3.3067579414       12.4527476393
  C         1.0562554041       -2.6220144172       11.8177323396
  H         1.0474194009       -2.4858248512       10.7293740048
  H        -0.7394702572       -3.8246752701       11.9373362687
  H        -0.7008478796       -3.9078396255       14.4610914246
  H         0.8434117994       -2.6029287444       15.6065454965
  C         3.2451055809       -1.5638620046       10.3249683032
  C         3.8763486644       -2.6916137168        9.8656300839
  C         3.7894088632       -3.1349868099        8.5470169755
  C         2.9709843276       -2.4053550852        7.6377091251
  C         2.3813213946       -1.1873774148        8.0590606295
  C         2.4694542104       -0.8058172481        9.4448736887
  H         1.8125790076        0.0023362424        9.7513254935
  H         1.7979921111       -0.4926110738        7.4890303751
  H         2.7478916922       -2.8027279256        6.6399400717
  H         4.3586859490       -4.0087234739        8.2770191285
  H         4.5873722427       -3.2466276269       10.4420650205
  C        11.4673371712       -0.7727275780       14.0254735631
  C        12.4939691245       -0.0334254104       14.6602183180
  C        13.6824535411        0.4384022544       14.0701883101
  C        14.7075215846        1.0820582594       14.7812791888
  C        15.7927114430        1.6134304865       14.1334820894
  C        12.3468646129        0.2963771237       16.0902040158
  C        11.5933246272        1.3937948727       16.4855348592
  C        11.6087306272        1.9133320900       17.7779372336
  C        12.3957366131        1.2784073051       18.7674836867
  C        13.0626809069        0.0758247442       18.4085601336
  C        13.0952762352       -0.3373143583       17.0963992355
  H        14.6902480201        1.0890848495       15.8726312745
  H        16.5694264886        2.1170975339       14.6315249556
  H        10.9842221961        1.9511878019       15.7602597107
  H        11.1634031220        2.9092896058       17.9588072761
  H        12.3240071000        1.6163451316       19.8821128589
  H        13.6745186970       -0.4997049471       19.0726310370
  H        13.6533179058       -1.1956139048       16.7612322977
  C        11.4842365167       -0.7343506900       12.5345382365
  C        10.4209166163       -1.4047539723       11.8161765193
  C         9.4083200580       -2.0647207122       12.5154361052
  C         9.3292885819       -1.9911312530       13.9678887321
  C        10.3836311471       -1.3972394045       14.7127166004
  C        13.6600329778        0.4994904081       12.6564854178
  C        12.5690778935       -0.0184509891       11.9202442140
  C        12.5522232125        0.3927076108       10.4493881890
  C        11.8811046865        1.6029130426       10.1871808092
  C        12.0125661545        2.1738674472        8.8970821734
  C        12.8471667433        1.5744620261        7.9196714527
  C        13.5346410205        0.4322109298        8.2227900082
  C        13.4578370805       -0.1285757454        9.5021101499
  H        13.8533045810       -1.1226134393        9.6901507180
  H        14.1537875482       -0.1084009591        7.4768680437
  H        12.8572672511        2.0200651090        6.9189372263
  H        11.4003283354        2.9952268402        8.4747816851
  H        11.1865275218        1.9674422391       10.9147174720
  C        14.7382515193        1.1770675289       12.0112409089
  C        15.8138556601        1.6595466037       12.7147899515
  H        16.6661959700        2.0008724205       12.1426958230
  H        14.5919819721        1.3302985471       10.9735909756
  C        10.4305661401       -1.8036964418       16.2007252204
  C        11.1091154979       -3.0207473163       16.4727391234
  C        11.2623266613       -3.4634061336       17.7909090633
  C        10.6175469390       -2.7745523015       18.8502615140
  C         9.8021596576       -1.7094071831       18.4914557255
  C         9.6197525398       -1.2224935404       17.1947474587
  H         9.0027164885       -0.3486880215       16.9561516678
  H         9.1084042974       -1.4086008856       19.2586825373
  H        10.7671128227       -3.1245595757       19.8799966103
  H        11.8354518505       -4.3441746242       18.0442867110
  H        11.6024392048       -3.5374527720       15.7106855210
  C         8.2147564213       -2.6187648077       14.6481304668
  C         7.1293851586       -3.0875338415       13.9562732743
  C         7.2619850204       -3.1343511495       12.4950447691
  C         8.3737283329       -2.7786242358       11.8415043386
  H         8.4955003290       -2.9743940604       10.7908013534
  H         6.4304282593       -3.6596001889       12.0295823131
  H         6.2013865134       -3.4239034431       14.4295003845
  H         8.3162774419       -2.6337220348       15.7750045258
  C        10.3194843132       -1.5346072039       10.2970410983
  C        11.2374158427       -2.3993809004        9.5963019385
  C        10.9252702225       -2.6561335687        8.2486989736
  C         9.7861636349       -2.1340799421        7.6471677908
  C         8.9117078137       -1.3370783082        8.3637455671
  C         9.1674362575       -1.0198960168        9.6857928221
  H         8.4435841882       -0.4099425938       10.2703623727
  H         8.0036787643       -1.1148205103        7.8821309645
  H         9.4563855913       -2.3339716503        6.6327724245
  H        11.5813252331       -3.4610202323        7.8417936601
  H        11.9993526388       -2.9866363610       10.0698663318
