140

  C        10.7110058423        7.2831028740        1.1219625616
  C         9.6600774342        8.0693443158        1.7549598277
  C         8.5910084400        8.5943967102        0.9634374320
  C         7.4171811580        9.1646090397        1.5032939405
  C         6.4336450419        9.7511163594        0.7563417047
  C         9.7845893836        8.3888779570        3.2459195161
  C        10.7368900707        9.2897990093        3.7412960373
  C        10.7686576936        9.7102413509        5.0819528695
  C         9.8654536571        9.1068131846        6.0350680378
  C         8.8527342564        8.2545674475        5.5324282308
  C         8.8147235468        7.9267994474        4.1644070239
  H         7.2125847221        9.0352054388        2.5478756846
  H         5.4475298498       10.0598286625        1.1482320723
  H        11.4976483499        9.5413146978        3.0423093585
  H        11.5598353697       10.2984408000        5.3957260739
  H         9.8835479274        9.4693544039        7.0710368456
  H         8.0204518300        7.8859071160        6.1178393188
  H         8.0067529698        7.3487459652        3.7738721374
  C        10.7838207570        7.3496079203       -0.3444902035
  C        11.8368110237        6.6279618842       -0.9938784973
  C        12.9378303525        6.0824558744       -0.2217760341
  C        12.8812440610        6.1546423330        1.2455054458
  C        11.7382015292        6.6318580777        1.9264208485
  C         8.7200525399        8.6262780655       -0.4553332718
  C         9.8582173987        8.1078478551       -1.0503021243
  C        10.1908757640        8.6556408561       -2.5235218536
  C        10.7552837330        9.9465233571       -2.6721878780
  C        10.6613168480       10.5378669813       -3.9267818234
  C        10.1606994831        9.8679365495       -5.0171950121
  C         9.6979631577        8.6108127585       -4.8988406244
  C         9.6116521546        8.0236178517       -3.6445287703
  H         9.1596831308        7.0291976121       -3.4895162790
  H         9.3216114620        8.0410609761       -5.7455766349
  H        10.1132298142       10.3996329932       -5.9276861653
  H        10.8985543313       11.6102815330       -3.9980076546
  H        11.0177435337       10.5069797331       -1.7914687157
  C         7.7600286431        9.4651411217       -1.1543538587
  C         6.6639816780       10.0322250359       -0.6291376893
  H         5.9111792816       10.5966745650       -1.2078653570
  H         7.9507965425        9.7012866310       -2.2420649130
  C        11.6936913315        6.2089308847        3.3802234508
  C        10.9439480950        5.1090726465        3.7607315270
  C        10.9541100206        4.6668812846        5.1271468184
  C        11.8607026032        5.2985795587        6.0066325434
  C        12.6517158163        6.3867853122        5.6414564539
  C        12.5370770458        6.8564391309        4.3181670610
  H        12.9795527287        7.7626585767        3.9332734059
  H        13.2639394408        6.9662810812        6.3238699726
  H        11.9447873554        4.9877128609        7.0714755190
  H        10.2953081238        3.8494182724        5.4517249431
  H        10.4040832464        4.4976436944        3.0427833565
  C        13.9552330454        5.5556215346        1.8891749987
  C        15.0179150407        5.0592667528        1.2463303191
  C        15.1124151379        5.0203044784       -0.1570867884
  C        14.0704981803        5.5010819279       -0.8350076288
  H        14.2173340290        5.5523208419       -1.9236702050
  H        15.9887017013        4.6211551790       -0.6113828019
  H        15.9149498454        4.7490205522        1.7536988064
  H        14.0122598804        5.5748519399        2.9638790519
  C        11.7560647121        6.3408749787       -2.4281003432
  C        11.0375751181        5.2356811342       -2.9622750413
  C        11.0773744510        4.8248531247       -4.3478758059
  C        11.9825949600        5.5591780008       -5.1308510292
  C        12.7381101270        6.6262607273       -4.6479748409
  C        12.5800159397        7.0686350576       -3.3262491376
  H        13.1825277934        7.9927662487       -3.0736291521
  H        13.4324155428        7.1047231467       -5.3381509227
  H        12.1214479495        5.2150692297       -6.1696259880
  H        10.5372284983        3.9461140541       -4.6406343119
  H        10.2862159044        4.6908360840       -2.3517791768
  C        17.9145199490        7.3332440428        1.1724999798
  C        16.9397506983        8.0193692568        1.9272213010
  C        15.8643980804        8.5506546021        1.2114452851
  C        14.8221631353        9.2718865179        1.8828792424
  C        13.7128517623        9.7565875292        1.1817871359
  C        17.1245954686        8.2621725207        3.3817636789
  C        17.9547119569        9.3119555279        3.7899820941
  C        18.0396494626        9.6015353450        5.1627008361
  C        17.2474913506        8.9562211658        6.0845982358
  C        16.3099703975        8.0431142853        5.6430220967
  C        16.2553035819        7.6822763461        4.2997548470
  H        14.8180054135        9.0870569210        2.9526644046
  H        12.8379714804       10.2805798482        1.6323046373
  H        18.3943891183       10.0010985454        3.0141019150
  H        18.5731681682       10.4426751090        5.5721840954
  H        17.4036985703        9.1627985623        7.1800755927
  H        15.7402617060        7.5167763354        6.3859065587
  H        15.4827565836        6.9739390043        3.9871866620
  C        18.0036659450        7.3834660012       -0.2727378380
  C        19.1321061976        6.7473825579       -0.9425595621
  C        20.2116138886        6.1977772237       -0.1795798037
  C        20.0448542492        5.9604658976        1.2580201401
  C        18.9027380561        6.5179806081        1.8410256146
  C        15.8613316154        8.5019465680       -0.2249104965
  C        16.9476393671        8.0127156759       -0.9925269284
  C        17.0743140212        8.3837562195       -2.3703026685
  C        17.5881609367        9.6252042433       -2.6934564618
  C        17.5636003482       10.0627817043       -4.0367589336
  C        16.9927436263        9.2899150945       -5.1177087331
  C        16.5064352307        8.0351944514       -4.7044417924
  C        16.5026262162        7.6393476808       -3.3658215892
  H        15.9197210127        6.7544068914       -3.0896987946
  H        16.2501912615        7.3175126756       -5.4577211665
  H        16.9687430007        9.6588065895       -6.1749352860
  H        17.9706372288       11.0739105346       -4.3764670353
  H        18.0597567073       10.2827506875       -1.9937131097
  C        14.8052541570        9.1399040287       -0.9285402083
  C        13.7554576081        9.6893849799       -0.2416786012
  H        12.8695628933        9.8572327456       -0.8739681996
  H        14.8191667212        9.0678607566       -2.0133272712
  C        18.7009813077        6.1110404661        3.3204019818
  C        17.9743690560        4.9887542877        3.7116878270
  C        17.9848598890        4.4805493535        5.0064371413
  C        18.6714311518        5.1164823639        5.9679146816
  C        19.4751262841        6.2450290203        5.6027187447
  C        19.4716435087        6.7544085419        4.3112842481
  H        20.0797384654        7.5781796715        3.9153468956
  H        20.0283112290        6.7814607847        6.4116838808
  H        18.7412157429        4.8222257512        7.0087755170
  H        17.5567113661        3.5014970334        5.2294825290
  H        17.4754351511        4.4023562728        2.9402633314
  C        21.0208759597        5.2542813366        2.0172249027
  C        22.1134862282        4.7071593380        1.4683803915
  C        22.2392673307        4.7852685566        0.0672317813
  C        21.3674446946        5.6137940285       -0.7206868941
  H        21.4313607298        5.4309080663       -1.7691769120
  H        23.0399960131        4.3301212472       -0.5040530743
  H        22.9388614991        4.3438805064        2.0859526408
  H        20.7951638511        5.1462536453        3.0671245176
  C        19.1372182134        6.4303542791       -2.4199446622
  C        18.4550711934        5.2496614626       -2.8387113603
  C        18.4661326976        4.7705756864       -4.1662324207
  C        19.1567626149        5.4837474338       -5.1393921737
  C        19.8152909313        6.7413571365       -4.7766983995
  C        19.8055914386        7.2167652644       -3.4488451337
  H        20.2595577299        8.2067628688       -3.2040843393
  H        20.3275506882        7.2833877357       -5.5572652304
  H        19.1563750334        5.2053866958       -6.1887431292
  H        18.0666195164        3.8077449694       -4.4570929553
  H        18.0110474246        4.5939415408       -2.0671505296
