140

  C         4.8612754669       -1.1390287979       14.0618284746
  C         5.8644339159       -0.3103969031       14.7742732055
  C         7.0577989222        0.0644143897       14.1598699280
  C         8.0085406622        0.8619672616       14.8210878850
  C         9.1833565908        1.2552110637       14.2607454677
  C         5.6404656834        0.2370632213       16.2100815927
  C         4.6540483211        1.2130425223       16.5179748343
  C         4.4807757382        1.6621722669       17.8467029681
  C         5.4105956706        1.2660993595       18.8878758572
  C         6.2115375335        0.1321353006       18.6118395392
  C         6.2894934745       -0.3676834552       17.2938520630
  H         7.9622263961        0.9968587621       15.9464469128
  H         9.9269295114        1.8499355661       14.7673303527
  H         4.1396483216        1.7001380190       15.7793376787
  H         3.6454750522        2.3836830165       17.9466413441
  H         5.3265982729        1.7444385321       19.8365217275
  H         6.6539789046       -0.4437653679       19.4645227174
  H         6.9882021195       -1.2330660272       17.0616844170
  C         4.9326248751       -1.2017763417       12.6057688277
  C         3.9991419082       -1.9928483258       11.9334233751
  C         2.9022037488       -2.5936826253       12.6323680153
  C         2.6986120736       -2.4463828155       14.0689064259
  C         3.7415053930       -1.7503205021       14.8031679297
  C         7.1323645838       -0.1231073530       12.7139725784
  C         6.0451891828       -0.5699341381       11.9356112994
  C         5.9904976424       -0.2785446645       10.4595629010
  C         4.9892462410        0.6235545712       10.0398421621
  C         4.9238643519        1.0311428746        8.7112049279
  C         5.7600999723        0.4258601384        7.7161291691
  C         6.5489835716       -0.6590824821        8.0882593917
  C         6.7392528768       -0.9810420763        9.4615092047
  H         7.4785000282       -1.7596632011        9.7020472615
  H         7.0909871256       -1.3074332204        7.3548013850
  H         5.7314910819        0.7336647378        6.6392943816
  H         4.2467114510        1.8374046904        8.4495684816
  H         4.3500126227        1.1101278068       10.7790781868
  C         8.3546560301        0.2701123105       12.0959145499
  C         9.2974715983        0.9034086984       12.8036731618
  H        10.2846278491        1.0639774095       12.3333892734
  H         8.4313326267        0.0692126585       11.0479230517
  C         3.8572920482       -2.1277157446       16.2562223917
  C         4.8253591009       -3.0124286812       16.7162866135
  C         4.8195074420       -3.3445260040       18.0444169838
  C         3.8754423761       -2.8827148338       18.8881019125
  C         2.9160824547       -1.9818727609       18.4759575812
  C         2.9875244150       -1.5682054918       17.1727367168
  H         2.3026937722       -0.7413517214       16.7931294947
  H         2.1686352168       -1.5382745793       19.1798255805
  H         3.9082827455       -3.3761819464       19.8275979062
  H         5.5853963172       -3.9779371151       18.4283450563
  H         5.4524911033       -3.4897679274       16.0231270431
  C         1.6414507975       -3.1651781609       14.7383782305
  C         0.8380054954       -3.9785335107       14.0036095131
  C         0.8865393074       -3.9764324677       12.5797487392
  C         1.8643726269       -3.2898456309       11.9288664068
  H         1.7496504533       -3.1881637666       10.8415166751
  H         0.1380059664       -4.5464812731       12.1039830444
  H        -0.0287880809       -4.4328307281       14.4681320316
  H         1.5227280895       -3.1686743436       15.7965661657
  C         3.9487861585       -2.3189891858       10.4400845141
  C         4.8092481481       -3.3015211637        9.9956694245
  C         4.7501968473       -3.7788323607        8.6612554919
  C         3.7480157545       -3.2953946040        7.8315170526
  C         2.9828690472       -2.2052752639        8.2761645880
  C         3.0034501841       -1.7091527099        9.5861197260
  H         2.3572521502       -0.8634573939        9.8284737714
  H         2.2867046747       -1.7217417763        7.6447873629
  H         3.5495820229       -3.7745301970        6.8973964286
  H         5.3114375110       -4.5570819868        8.2270035418
  H         5.5209094640       -3.6514779441       10.7444572244
  C        11.9306935135       -1.4270646318       13.8678649652
  C        13.0137989078       -0.7538243294       14.5374548889
  C        14.0332972866       -0.0617604355       13.7834129214
  C        15.1273006279        0.7204181401       14.3952155586
  C        16.1152274765        1.2974511057       13.6017953978
  C        13.0734100928       -0.4442564470       15.9911163196
  C        12.2394272432        0.5991214170       16.4397934502
  C        12.3085884232        1.1015939925       17.7446045460
  C        13.1867575587        0.4727139688       18.6246118546
  C        14.0269674075       -0.6379102261       18.2489892075
  C        13.9598385355       -1.0124407001       16.8784177786
  H        15.2425654853        0.7594857791       15.4837000112
  H        16.8079473672        1.8975653633       14.0334723665
  H        11.4563906311        1.0148236078       15.7832172079
  H        11.6205841254        1.8691328232       18.0795477215
  H        13.3238723376        0.8499571197       19.6064355423
  H        14.6841378256       -1.1248433638       18.9620184701
  H        14.5207538682       -1.9090968940       16.4551170307
  C        11.9293788878       -1.4618936568       12.3673417901
  C        10.9666684279       -2.1492774073       11.6148940122
  C         9.7766097995       -2.5354058575       12.3098912076
  C         9.6894693164       -2.4667546958       13.7668174276
  C        10.7659116386       -1.9844043030       14.4867213721
  C        13.9778995135       -0.1262983699       12.3491592972
  C        12.8906111388       -0.7050103587       11.6517465461
  C        12.8524805314       -0.4432568986       10.1522982219
  C        12.2180464706        0.7095193113        9.6633154949
  C        12.3254767024        1.1424142153        8.3159257336
  C        13.2389267594        0.4908024858        7.4618264066
  C        13.9752857702       -0.5968847445        7.9387005078
  C        13.7459476294       -1.0273200329        9.2748729105
  H        14.3489899136       -1.7752363233        9.6521375514
  H        14.6297509111       -1.1660306629        7.3374461923
  H        13.3274797613        0.7863878323        6.4023006184
  H        11.7715754082        2.0214717925        7.9543271740
  H        11.6100828237        1.3555518118       10.3685748344
  C        15.0680457305        0.3918508070       11.5601485651
  C        16.0961910672        1.0932321404       12.2300530840
  H        16.9515542696        1.4765905340       11.6244410064
  H        15.0959704085        0.1981404412       10.4787810922
  C        10.8550817871       -2.3189287635       15.8998964377
  C        11.7198769204       -3.3790356313       16.3023078730
  C        11.8329721965       -3.7925929169       17.6224872117
  C        11.0676786870       -3.1147362378       18.6154979865
  C        10.2292212626       -2.0390209734       18.2550476315
  C        10.0963163832       -1.6695347535       16.8531724728
  H         9.4589967051       -0.8872750540       16.6636569858
  H         9.5365316001       -1.6128518475       18.9144313944
  H        11.0838842981       -3.4800703389       19.6543781814
  H        12.5330143782       -4.6031680322       17.8817500572
  H        12.2962115958       -3.9003201377       15.5412090147
  C         8.5717314687       -3.0597836231       14.4201997317
  C         7.5341442471       -3.5854111622       13.7356742244
  C         7.5962606681       -3.7402677969       12.3137562460
  C         8.6720634807       -3.1849163037       11.6783665547
  H         8.8634978569       -3.4271905628       10.6540631398
  H         6.9214757346       -4.4984378992       11.9439364989
  H         6.6131884320       -3.9603225297       14.2616804754
  H         8.5438280364       -3.0685586050       15.4935994183
  C        11.0909972133       -2.5760803565       10.1911732413
  C        11.8476170814       -3.7453973884        9.9658001517
  C        11.9633150704       -4.3100255036        8.6309659041
  C        11.2181284572       -3.7178804142        7.5938248273
  C        10.4583495998       -2.5523605548        7.8427219512
  C        10.3620292598       -2.0509944903        9.1383043302
  H         9.8266741868       -1.0659065590        9.2733643933
  H         9.9277459500       -2.0501824735        6.9939089864
  H        11.2344308865       -4.2387692635        6.6303230233
  H        12.6171843750       -5.1425686471        8.3504545744
  H        12.3423597631       -4.0729796664       10.8912463144
