140

  C         5.0565114389       -0.2818046253       15.9297481864
  C         6.0085109162        0.5289515207       16.5519072372
  C         7.0622118121        1.0369251796       15.7885507473
  C         8.0940703010        1.8565181032       16.4009926237
  C         8.9480387986        2.5148400032       15.5756682999
  C         5.8536711287        0.9110313664       17.9979379821
  C         5.1471467903        2.0137506795       18.4638760686
  C         5.1654453405        2.3462331113       19.8546400870
  C         6.0044277381        1.6929351794       20.6823342015
  C         6.8366452697        0.6655252455       20.2247744980
  C         6.6944164322        0.2046778433       18.9336784089
  H         8.2846639211        1.8026944260       17.4998105621
  H         9.6668079487        3.1918787498       16.0339521111
  H         4.4125196137        2.5680455895       17.8782981350
  H         4.5360767701        3.1893213334       20.1211735938
  H         6.2315140909        1.9012411056       21.7384266090
  H         7.5946878151        0.2969180124       20.8779968673
  H         7.2127976462       -0.6399875391       18.5816211588
  C         5.0400469920       -0.4632316033       14.4548802673
  C         3.9647504800       -1.1285244086       13.8291779955
  C         2.8399646202       -1.5905653390       14.5649919325
  C         2.9859337853       -1.6360572940       15.9963660157
  C         4.0800900624       -0.9745292739       16.6502451639
  C         7.0673772765        0.9137989145       14.2965104343
  C         6.0031458951        0.2437754893       13.6129886374
  C         5.8726145552        0.4762747070       12.1463771562
  C         5.0922280841        1.5996978987       11.7010608019
  C         5.2617281965        2.2537672044       10.4570041785
  C         6.2953772265        1.7719107970        9.5820012200
  C         6.9597102142        0.6063250479        9.9531731890
  C         6.7315605058       -0.0169691088       11.1953012948
  H         7.2204867391       -0.9728741104       11.3947587524
  H         7.8059358723        0.2162593388        9.3746849860
  H         6.5126632511        2.1764587324        8.5876340722
  H         4.6884433083        3.1460909123       10.2605470063
  H         4.3091087029        1.9344616027       12.4408466951
  C         8.0510755772        1.6575946464       13.4832697380
  C         9.0442408882        2.3820983155       14.1496800998
  H         9.7904828318        2.9592673109       13.6454089265
  H         7.9862064206        1.4545212554       12.4338975582
  C         4.1367965440       -1.3628057452       18.0782114687
  C         4.9890674895       -2.3965056149       18.5834090415
  C         4.7936870309       -2.8505488345       19.9182021325
  C         3.7155841385       -2.4778917211       20.6685701364
  C         2.8862691139       -1.4657345699       20.2269168026
  C         3.1218850813       -0.9272590038       18.9675461775
  H         2.4851201356       -0.1830881662       18.5434187854
  H         1.9869455239       -1.1485910309       20.7297960674
  H         3.5316757729       -2.8667187339       21.6820324371
  H         5.5112178676       -3.5073118482       20.3950020731
  H         5.9919877636       -2.7060016768       18.1675156959
  C         1.9429161170       -2.3073864546       16.7008359777
  C         0.7515686744       -2.6305745917       16.0918487198
  C         0.5092333498       -2.4203260443       14.7240701167
  C         1.5442836887       -1.9397061758       13.9584022556
  H         1.3257201436       -1.6874886592       12.8789634067
  H        -0.4256144075       -2.8070896987       14.2579718788
  H        -0.0419642868       -2.9046356655       16.8037552504
  H         1.9267717858       -2.4154023575       17.8414021064
  C         4.0321176838       -1.5658682006       12.3361411852
  C         4.8467498557       -2.6572325797       11.9028403246
  C         4.9405935269       -2.9727199733       10.5914365365
  C         4.1266245848       -2.2642723338        9.6194423722
  C         3.2384577193       -1.3100614441       10.0513544255
  C         3.1577471559       -0.9769002555       11.4119235768
  H         2.3978842291       -0.2897081708       11.7531923983
  H         2.5645401303       -0.7750427433        9.3264230780
  H         4.1445496839       -2.5890275532        8.5727709612
  H         5.6310705531       -3.7737621246       10.2539331966
  H         5.3949498935       -3.2252788424       12.6655325606
  C        12.0061072207       -0.0335183441       16.0117976358
  C        13.0381567165        0.5905394127       16.7346809023
  C        14.1448882174        1.2696784550       16.0612956320
  C        15.1977361824        2.0215843507       16.7945891903
  C        16.1600571969        2.6807209049       16.0555336989
  C        12.9738489410        0.8775373105       18.2124211214
  C        12.0944495008        1.9037287079       18.5840088758
  C        12.1194492595        2.4430262148       19.8605105179
  C        13.0393729318        1.9818934787       20.8367114641
  C        13.8537558182        0.8456138201       20.5534251283
  C        13.8708425464        0.3147495511       19.2354205539
  H        15.2295598950        1.8611633293       17.8564136223
  H        16.9142376563        3.2153699959       16.6476041166
  H        11.4038554188        2.2953347452       17.8174536026
  H        11.5500658732        3.3521605152       20.0716144473
  H        13.0349483953        2.5314020352       21.7842620228
  H        14.4794749645        0.5379122663       21.3605530162
  H        14.5935187174       -0.3872088717       18.9334231653
  C        12.1611895797       -0.0769564893       14.5320522893
  C        11.1605807192       -0.8370677868       13.7646017076
  C         9.9843381928       -1.4208292800       14.3744724913
  C         9.8460846441       -1.3282468210       15.8159650564
  C        10.9184359033       -0.7725316396       16.5956320128
  C        14.2225235448        1.3009511487       14.6499900210
  C        13.2429159012        0.5991304880       13.8840156191
  C        13.2176779018        0.7617281174       12.3859232104
  C        12.5388717886        1.9855522604       12.0161367691
  C        12.5929172689        2.4117001018       10.6845871019
  C        13.2276463890        1.6746619194        9.6637093870
  C        13.9259845040        0.5648107201       10.0629695428
  C        14.0525862835        0.1431291651       11.4039954178
  H        14.5710258131       -0.8060801335       11.6440350031
  H        14.3844438279       -0.0231530284        9.2570881969
  H        12.9831670892        1.8960676810        8.6069060448
  H        12.1018276732        3.3455117270       10.3728149503
  H        11.9832345183        2.4765216186       12.8036144821
  C        15.2975347277        1.9615606756       13.9300299843
  C        16.2287926470        2.6403777895       14.6151374253
  H        17.0437534181        3.1548426115       14.0665473290
  H        15.2349716469        1.8610275305       12.8222587237
  C        10.9523299541       -1.0988459009       18.0159830375
  C        11.8546617285       -2.1086117713       18.3958499336
  C        11.9426000769       -2.5716965671       19.7481533398
  C        11.0301386894       -2.0675804178       20.6563756581
  C        10.0213309315       -1.1358386699       20.2650239850
  C         9.9975861424       -0.6611413814       18.9561613426
  H         9.3270249438        0.1248647394       18.6085945406
  H         9.4038291995       -0.7890192767       21.0346091138
  H        10.9668985846       -2.4553715950       21.6636597597
  H        12.6959439636       -3.3200913414       19.9608164161
  H        12.5425993420       -2.5138248700       17.6839245770
  C         8.7429310755       -2.0615167566       16.3816178828
  C         7.8922346361       -2.8337084640       15.6571891951
  C         7.9445445598       -2.9054344763       14.2839613230
  C         8.9857534156       -2.2295261012       13.5682634582
  H         9.0114800348       -2.2345997672       12.4926114849
  H         7.2027643717       -3.4767532497       13.6822477213
  H         7.1720134215       -3.4232187204       16.2195158570
  H         8.6772147460       -2.1153944400       17.4227574090
  C        11.2983640831       -1.0865755087       12.2776435768
  C        11.9376409816       -2.2218863936       11.8421776791
  C        12.1075383110       -2.5511765678       10.4676147411
  C        11.4969890054       -1.6929982109        9.5598245578
  C        10.7345704297       -0.5729002358        9.9745454328
  C        10.6608524853       -0.3436078549       11.3485472673
  H        10.0899810443        0.4936963602       11.7585557285
  H        10.1338909986        0.0194135472        9.2919817423
  H        11.3938410120       -2.0314898448        8.5462880248
  H        12.6318862910       -3.4580645043       10.1650778579
  H        12.2744639141       -2.9667417925       12.5914229523
