140

  C         9.6058896923        7.6088881753        1.0387409467
  C         8.5567104711        8.2676353357        1.7317117157
  C         7.5733874471        8.9740716553        1.0011550518
  C         6.4372204137        9.5384986762        1.7216538743
  C         5.4153899575       10.0880722177        1.0061857133
  C         8.5948966489        8.5042841042        3.2327020953
  C         9.5053696342        9.4822559265        3.6741918955
  C         9.5418518172        9.8726473737        4.9842729044
  C         8.7476011802        9.2787872137        5.9368154587
  C         7.9161912417        8.2341115865        5.4517535293
  C         7.7723358985        7.9085548799        4.1178902614
  H         6.2573689498        9.4868789385        2.8162824768
  H         4.4113070181       10.2730168195        1.3524510648
  H        10.0733551347        9.9939877481        2.9464872704
  H        10.0166302767       10.8148633464        5.2340429940
  H         8.7637830951        9.5552725418        7.0397647530
  H         7.2030727663        7.7754240756        6.0602716763
  H         7.0787699653        7.2188158024        3.7280882789
  C         9.6277401690        7.5635256018       -0.4074791356
  C        10.7001597406        6.9096244964       -1.1012576075
  C        11.8199831662        6.3858196843       -0.3923582367
  C        11.8144731264        6.3795195233        1.0042551918
  C        10.7087836903        6.8803961624        1.6384989576
  C         7.6207300081        9.0649089597       -0.4358149057
  C         8.6441677140        8.3458235580       -1.1281101245
  C         8.6274771192        8.6630449202       -2.5682387057
  C         9.2482460755        9.9114022540       -3.1116676043
  C         9.0286611004       10.3438993846       -4.4211796934
  C         8.2368323170        9.5963575948       -5.2696268685
  C         7.6520328867        8.4216603834       -4.7882954077
  C         7.8239408660        7.9681666443       -3.4807414889
  H         7.1906241003        7.1692176854       -3.1346545125
  H         6.9401953464        7.9209342288       -5.4473767721
  H         8.0591612492        9.9369269316       -6.2773775439
  H         9.5433893678       11.2656818974       -4.7335248891
  H         9.7674647043       10.4354650697       -2.3512942291
  C         6.6132216606        9.8504204085       -1.1765380590
  C         5.5183945564       10.2838752782       -0.3918961528
  H         4.6989395900       10.8665615051       -0.8709532046
  H         6.6774230912        9.9945634856       -2.2822193531
  C        10.7041060571        6.6316371503        3.1502087237
  C         9.8076887860        5.6859114021        3.6624151789
  C         9.7766014942        5.4798602068        5.0523346330
  C        10.8267985847        6.0121763246        5.9230110013
  C        11.7400199716        6.9052484855        5.3767876953
  C        11.6400261509        7.2629652270        4.0443612242
  H        12.2583436515        8.0766653385        3.7060436337
  H        12.4630181203        7.4476932466        6.0026972920
  H        10.9967438388        5.6672820603        6.9441649438
  H         8.9220168300        4.9584545247        5.4808197405
  H         8.9671032359        5.3166934431        3.0713757602
  C        12.9882097053        5.8285587179        1.6777050262
  C        14.0290731030        5.2962129195        0.9405518331
  C        13.9858442843        5.2537298045       -0.4746242724
  C        12.9202728067        5.7083053048       -1.1100321737
  H        12.8603443378        5.4832005906       -2.1784930055
  H        14.8166987535        4.7402601573       -1.0209407672
  H        14.8956337582        4.8750571804        1.4609169210
  H        13.1536835413        5.8850606885        2.7067506189
  C        10.5379108737        6.7146452848       -2.6154702215
  C         9.7110864632        5.6225615851       -3.1135739159
  C         9.6803464814        5.2786654359       -4.4369786484
  C        10.5453516926        5.9300437763       -5.3612176158
  C        11.3803331878        7.0113783381       -4.9380656278
  C        11.4070153869        7.3871385720       -3.5425224967
  H        11.9983234512        8.1435568565       -3.1176249922
  H        12.1718347213        7.4461866908       -5.5393690651
  H        10.5720629775        5.6981666103       -6.4293425198
  H         8.8599787663        4.6238188244       -4.8372903061
  H         9.0429036982        5.0815330373       -2.4146283513
  C        16.8193589515        7.4367495347        1.2689798421
  C        15.8409529032        8.2481542326        1.9192866876
  C        14.7570542151        8.7942590710        1.1840748412
  C        13.7315671415        9.5058200901        1.8873372965
  C        12.7623683377       10.1620393211        1.2215566247
  C        15.9595973836        8.6131021014        3.3591096228
  C        16.9515927335        9.5483608949        3.7655360104
  C        17.0367306564        9.9868502969        5.1029697331
  C        16.1169041084        9.5235448798        6.0151873141
  C        15.1732938813        8.6248469315        5.6517456836
  C        15.0582530407        8.1249746555        4.3599006154
  H        13.7669416987        9.5526195173        2.9591424672
  H        12.1215662151       10.8685447305        1.6499445825
  H        17.6281910157        9.9948570482        3.0726135848
  H        17.8111001325       10.7097337483        5.3266492042
  H        15.9604577823        9.8892630924        7.0283136078
  H        14.3715139480        8.2999941302        6.3866137543
  H        14.3206782565        7.3613124374        4.0927165689
  C        16.9091588497        7.5305758543       -0.2231094255
  C        17.9862343669        6.8823610851       -0.8931555924
  C        19.0473885295        6.2832633330       -0.1897237909
  C        18.9403111573        6.1910749545        1.2858933496
  C        17.8479768579        6.6998939528        2.0020727549
  C        14.7543124327        8.7694183690       -0.2473294015
  C        15.8991065074        8.2323091628       -0.9328450952
  C        15.9348224529        8.6045397131       -2.4138597017
  C        16.6610078553        9.7876766552       -2.7850351896
  C        16.5148981984       10.2413662974       -4.0924529547
  C        15.7457155789        9.5046762865       -5.0212432715
  C        15.0376339665        8.3493958886       -4.6459374877
  C        15.0861698596        7.9172177700       -3.3140659627
  H        14.6699554095        6.9802719201       -2.9292593702
  H        14.3938935631        7.7896138314       -5.3020197773
  H        15.7465337457        9.8427816219       -6.0344170987
  H        17.1513404726       11.0868112517       -4.3843793420
  H        17.2474353307       10.3147268960       -2.0387653787
  C        13.6822936395        9.4115909443       -0.9277313750
  C        12.6816357974       10.0303049130       -0.2112408349
  H        11.7794660048       10.4136765247       -0.7454073554
  H        13.6723364841        9.4057944418       -2.0534385663
  C        17.7013603661        6.4263790208        3.4475607097
  C        16.6350326869        5.4861877254        3.8252004963
  C        16.5996178158        4.9679965375        5.1449144066
  C        17.3950996446        5.4758287959        6.1273371780
  C        18.2989841337        6.5020937754        5.7569149048
  C        18.5188022522        6.9423378036        4.4595018738
  H        19.1495833805        7.8342238023        4.2171411918
  H        18.9579768460        6.8883922467        6.5165651974
  H        17.4501806828        5.0766359887        7.1515824899
  H        15.9377467388        4.1150949593        5.3658400257
  H        16.0972969630        4.9784702531        3.0603469137
  C        19.9273005828        5.4695941352        1.9685339079
  C        21.0191797351        4.8688106034        1.3626870626
  C        21.1216553787        4.9172386586       -0.0274061022
  C        20.2054670881        5.6484283018       -0.7831520497
  H        20.2886695221        5.7929066682       -1.8566640982
  H        21.9359040404        4.3738128867       -0.5380625479
  H        21.5651698764        4.2845316367        2.0446116694
  H        19.8389227323        5.2981394485        3.0254772424
  C        17.8966579380        6.6932787320       -2.4215535924
  C        17.1221358440        5.5831394986       -2.8636542790
  C        17.1588346548        5.2211585342       -4.2348210118
  C        17.9378500935        5.9379286224       -5.1823669403
  C        18.6508118522        7.0103930252       -4.7460027833
  C        18.6753737785        7.3573778849       -3.3908425213
  H        19.2474655921        8.1772748497       -3.1158699886
  H        19.2695578658        7.5250976573       -5.4425275187
  H        17.9506928312        5.6340951657       -6.1795344280
  H        16.5878166985        4.3126795198       -4.4856083212
  H        16.5374562093        4.9300572727       -2.2535694115
