140

  C         2.8759473968        0.2741683592       14.6530759300
  C         3.9529469932        0.9064656858       15.3414505614
  C         4.9993629447        1.5574308799       14.6917558231
  C         5.9815542154        2.3364218484       15.4390820278
  C         7.0135149676        2.9287842354       14.7382837855
  C         3.7351175969        1.2301343515       16.7884243829
  C         2.9123683832        2.3169530162       17.2284224941
  C         3.0290795318        2.6921205367       18.5034983839
  C         3.9145527477        2.0775367792       19.4295911803
  C         4.7306626949        1.0987205022       18.9676491772
  C         4.6255522697        0.6633069420       17.6756734764
  H         5.8669668098        2.4196261489       16.4792652714
  H         7.7347429089        3.6328306295       15.1636863607
  H         2.1963013765        2.8483314997       16.6185680073
  H         2.3446798979        3.4697642746       18.8221173986
  H         4.0315778707        2.2850130253       20.5455991972
  H         5.5412130037        0.7371163100       19.5882318347
  H         5.3260106655       -0.0967941162       17.3003115956
  C         2.9412983588        0.2436714971       13.1769532474
  C         1.9438762793       -0.5235894097       12.4747482772
  C         0.8598839447       -1.1410148343       13.1750932463
  C         0.8497423239       -1.0980054134       14.6583296275
  C         1.9330048590       -0.5732280362       15.3368889455
  C         5.0808111388        1.5221672709       13.2127601571
  C         4.0328987239        0.9725771814       12.4754940667
  C         4.0400769484        1.3141823668       10.9491472641
  C         3.3577092565        2.4760605623       10.5574465739
  C         3.4319226961        2.8769553059        9.2292989686
  C         4.2052266813        2.1669312787        8.2982577899
  C         4.6806634458        0.9338938257        8.6569587456
  C         4.6467587026        0.4959490361       10.0023870333
  H         5.0094218154       -0.4385822652       10.4475936940
  H         5.2371979427        0.3399115198        7.9146318729
  H         4.2378413659        2.4382681583        7.2007301743
  H         2.8393927866        3.6648524643        8.8239241815
  H         2.7607808804        3.0762281209       11.2509773058
  C         6.1209730767        2.2092459736       12.5618121463
  C         7.1429218188        2.7895234229       13.2863546396
  H         7.9611005289        3.3101408186       12.7526007662
  H         6.2204640107        2.1911821857       11.4413644968
  C         2.0199752633       -0.9291535306       16.7109350228
  C         2.8636363905       -1.9243989297       17.2033865939
  C         3.0202722833       -2.2344685879       18.5747912826
  C         2.2180245551       -1.5305232413       19.4478611414
  C         1.2687578000       -0.5647559528       19.0618601176
  C         1.1449564464       -0.3188586431       17.7077543527
  H         0.5721772856        0.5268593428       17.3640815052
  H         0.6780858739        0.0096499980       19.7782261526
  H         2.2997022818       -1.6602541432       20.4907202999
  H         3.7146378412       -2.9864836661       18.8942500275
  H         3.4702954518       -2.4327298163       16.4680417106
  C        -0.2768538843       -1.7088229775       15.3085843772
  C        -1.4254906303       -2.1033329005       14.6422027032
  C        -1.4320518506       -2.1315312652       13.2350614785
  C        -0.3144591574       -1.7094583866       12.5414233835
  H        -0.3040436289       -1.8062302847       11.4375808147
  H        -2.2502719864       -2.6502395006       12.7834833039
  H        -2.1757366915       -2.6083341255       15.1977878504
  H        -0.2662735692       -1.9537274971       16.3869647397
  C         2.0066132063       -0.8621789383       11.0000241751
  C         2.7164532451       -1.9506071981       10.4358116454
  C         2.4947734353       -2.3031015540        9.0965286798
  C         1.6614545934       -1.5738929249        8.2905516823
  C         0.9990159029       -0.4765351283        8.8369063170
  C         1.1182108845       -0.1413469817       10.1890359302
  H         0.5720416501        0.6702399555       10.6126019335
  H         0.2273095674        0.0293307063        8.3096244946
  H         1.5132320698       -1.7391076755        7.2650748990
  H         3.0366679666       -3.1826738960        8.7682132260
  H         3.4103939902       -2.5884638863       11.0288649429
  C        10.0011653628        0.1798243064       14.6156974990
  C        10.9276939030        0.9256605058       15.2943917883
  C        12.0265565646        1.4820024583       14.5502426202
  C        13.1819706844        2.1222888737       15.2560329112
  C        14.1540127003        2.7257497769       14.5117894400
  C        10.9905683705        1.3369489954       16.7754417224
  C        10.2369861117        2.4081067464       17.2028529113
  C        10.1540609301        2.8187511004       18.5742583657
  C        10.8860925637        2.0700312818       19.4911479985
  C        11.7257595963        1.0021796050       19.0784758098
  C        11.7501611945        0.6118616832       17.7698181386
  H        13.1881619323        2.0732225484       16.3259063236
  H        15.0376810077        3.2299145252       14.9777012223
  H         9.6932783306        2.9872105253       16.4882745090
  H         9.5664616936        3.6975843141       18.8948189022
  H        11.0277005615        2.4013415545       20.5192023312
  H        12.4094283470        0.5079068411       19.7973946162
  H        12.2938229085       -0.3079542264       17.4696150064
  C        10.0433496964        0.0722936050       13.1554587978
  C         9.0269186373       -0.6677624149       12.5308905792
  C         7.8645611832       -1.2100271103       13.2289718525
  C         7.7289819602       -1.0302576106       14.6707114430
  C         8.8493685109       -0.4231583000       15.3172901150
  C        12.0940781875        1.4457614941       13.1122365577
  C        11.0282915162        0.7657373854       12.4454227490
  C        10.8373139555        1.1974054333       11.0219766275
  C        10.2890552819        2.4322102847       10.7432994981
  C        10.2277300736        2.9421500449        9.4510839231
  C        10.7939384265        2.1944092036        8.4350648399
  C        11.5183611363        1.0089722541        8.6790630266
  C        11.4194283582        0.4755757865        9.9526487800
  H        11.9222839682       -0.4388142737       10.2183705011
  H        12.1905298644        0.5460311002        7.9746697183
  H        10.8384807318        2.6093257527        7.4286258215
  H         9.8297272508        3.9143308305        9.2411452548
  H         9.8622720101        2.9814911204       11.6238667938
  C        13.1320007528        2.0634753875       12.3146967821
  C        14.1262786357        2.7240711615       13.0436382914
  H        14.8733875970        3.3046534585       12.5519782190
  H        13.0299075749        2.1785675281       11.2177053518
  C         8.9226805884       -0.7150542979       16.7690686579
  C         9.8161939372       -1.7334688492       17.0480491483
  C         9.9306717409       -2.2135728877       18.3417822940
  C         9.1833060336       -1.6888398289       19.3801902035
  C         8.2580301721       -0.6597566386       19.1301386780
  C         8.0807184342       -0.2213789491       17.8025471026
  H         7.3157987072        0.4562812006       17.5146444933
  H         7.5518041851       -0.3638434394       19.9469988280
  H         9.3918443219       -2.1343502393       20.3515843281
  H        10.6640192598       -3.0398083805       18.5256419362
  H        10.4054248393       -2.1506186082       16.2372988176
  C         6.6768391456       -1.6025462728       15.3990522173
  C         5.6082909049       -2.2219664551       14.7108404548
  C         5.6912041372       -2.3779599158       13.2906377340
  C         6.7957073931       -1.9452616185       12.5780052766
  H         6.7536880510       -1.9711526166       11.4741233238
  H         4.8901664715       -2.9255372887       12.6746180223
  H         4.7810594335       -2.6406893050       15.2567312959
  H         6.6953601164       -1.6318557311       16.4844806500
  C         9.0161909044       -0.9900341333       11.0536305713
  C         9.8440642728       -2.0434357529       10.5688433990
  C         9.7887118876       -2.5181046766        9.2576764132
  C         8.9473602990       -1.8609004679        8.2947098314
  C         8.1886777783       -0.7532669001        8.7002574480
  C         8.2212612211       -0.3625491972       10.0782022298
  H         7.4233029166        0.3806609457       10.2959899788
  H         7.4741291385       -0.2389739185        8.0619856199
  H         8.8781893796       -2.2014704418        7.2787056998
  H        10.3559387611       -3.4211073530        9.0422759268
  H        10.5462331963       -2.6097573883       11.2581859136
