140

  C         5.7160447231       -0.8009841048       15.9259778957
  C         6.7430802164       -0.0321133849       16.6107180242
  C         7.9061162436        0.3340784923       15.9336704118
  C         9.0431424651        0.8334414060       16.5558383653
  C        10.0345432389        1.4658396248       15.8825544087
  C         6.5861204578        0.2329342965       18.0632656556
  C         5.7717049777        1.3239353772       18.5434239691
  C         5.7883943191        1.7807332576       19.8475560278
  C         6.5168276071        1.0305621275       20.7850091811
  C         7.2433024093       -0.0999010344       20.3339449923
  C         7.3176749751       -0.5022099137       18.9892135833
  H         9.0768391523        0.7927638149       17.6640436398
  H        10.8357751352        1.9134151159       16.4368154579
  H         5.2652198198        1.8457852531       17.6985068946
  H         5.0987560199        2.6244094842       20.1138527858
  H         6.6803164047        1.3479221956       21.8457024350
  H         7.8788172706       -0.6372294830       21.0596842579
  H         8.0008603186       -1.3178044340       18.6902828857
  C         5.7237057061       -0.7950254196       14.4600122978
  C         4.6226967572       -1.4502073951       13.7616629737
  C         3.5305158932       -1.9718385995       14.4686837156
  C         3.5260234887       -1.9387255278       15.9737647381
  C         4.6656768422       -1.4956626588       16.6546930265
  C         7.8565002385        0.4050150688       14.4582540062
  C         6.7692774498       -0.1152308512       13.7526260539
  C         6.6151807855        0.3248774651       12.2667379137
  C         6.0150701080        1.5731266469       12.1163137309
  C         5.9483396204        2.1740083251       10.8416417493
  C         6.6052162235        1.6203228599        9.7144871568
  C         7.3406749100        0.4138634102        9.8913567331
  C         7.3542641480       -0.1834709646       11.1828285223
  H         7.8702114453       -1.1390814280       11.3466819327
  H         7.9471697580       -0.0992666588        9.1035395248
  H         6.7229481616        2.2437296716        8.7995716373
  H         5.5322797748        3.1612964804       10.8454982617
  H         5.6966316415        2.0764225125       12.9997859762
  C         8.9241136842        1.1546634638       13.8045525637
  C         9.9349734838        1.7314220385       14.5128543147
  H        10.6938328764        2.4097011766       14.1325402486
  H         8.9441989683        1.1018159523       12.7075391900
  C         4.8710566562       -1.8893204062       18.0726498416
  C         5.7743515585       -2.9472788823       18.3903763091
  C         5.8607975383       -3.3455356880       19.7265860265
  C         4.9454026797       -2.8893036376       20.6860556243
  C         3.9440054475       -1.9682579049       20.3377087494
  C         4.0433345102       -1.3907698419       19.0628714465
  H         3.2708822315       -0.6541105549       18.7450242542
  H         3.2073328718       -1.6279402328       21.0533030354
  H         5.0258335287       -3.4052510201       21.6221263916
  H         6.6806768225       -4.0882072641       19.9456857025
  H         6.3296799222       -3.4390830767       17.6220519473
  C         2.4064863023       -2.6076869544       16.5457264007
  C         1.3112538820       -3.1350938573       15.8524258519
  C         1.3588095706       -3.1803772036       14.4522310639
  C         2.4346492597       -2.5922085750       13.8006682124
  H         2.5423236080       -2.6418598323       12.7173217143
  H         0.6128625436       -3.6887746230       13.8972955816
  H         0.4642008794       -3.5282982315       16.4791555088
  H         2.4943660499       -2.6596480813       17.6297425543
  C         4.6638659213       -1.6893463225       12.2818126736
  C         5.3613909540       -2.8206725155       11.8450209149
  C         5.3377252938       -3.1942279875       10.5173713772
  C         4.7951656138       -2.3802009857        9.5336395714
  C         4.0036949094       -1.2746493152       10.0098854709
  C         3.9401582727       -0.9509949217       11.3894660719
  H         3.3680155203       -0.1009195263       11.6815181573
  H         3.4218306888       -0.6743697478        9.2974083660
  H         4.7082077978       -2.6129245434        8.4347980674
  H         5.8766554755       -4.1334160066       10.2439668350
  H         6.0807330364       -3.4028196540       12.4221749227
  C        13.0635890358       -0.6188760103       16.0737147640
  C        14.0813061138        0.1496679420       16.7721401958
  C        15.1357477495        0.7722314213       16.1021032974
  C        16.2641696082        1.3823291804       16.7383392889
  C        17.2596687437        2.0233640079       16.1065527194
  C        14.0362963358        0.4480456950       18.2561360351
  C        13.1604773831        1.5281333905       18.7230292228
  C        13.0537466931        1.8121148256       20.1100143506
  C        13.8676188357        1.2466442519       21.0769341851
  C        14.6395761761        0.1810851079       20.6216151345
  C        14.7424595491       -0.1758952091       19.2493466712
  H        16.3766421988        1.2729767902       17.8282841658
  H        18.0663054006        2.5041652311       16.5701891715
  H        12.6238636310        2.0853161291       17.9918249577
  H        12.2838288691        2.5531194107       20.4095570360
  H        13.8718770150        1.6085119090       22.1207685883
  H        15.1718453924       -0.4078638111       21.3937722792
  H        15.1823135736       -1.1237494566       18.9467953034
  C        13.1820666389       -0.6277763107       14.6180322020
  C        12.1427757994       -1.4096948195       13.9673099818
  C        11.0714580846       -2.0196483249       14.6003235792
  C        11.1123668087       -2.0610451339       16.0078883641
  C        12.1217778572       -1.4503151520       16.7593813699
  C        15.1194996025        0.8601213009       14.6717992080
  C        14.1115770473        0.1987464515       13.9106526584
  C        14.1661102154        0.4837129760       12.4772404998
  C        13.3929129240        1.5422230778       12.0582390780
  C        13.5099118766        2.0612843143       10.7515253198
  C        14.3103144798        1.4414231069        9.8622633191
  C        15.1588335612        0.4264642538       10.3160386269
  C        15.0928977939       -0.1203449697       11.5862573360
  H        15.7420272405       -0.9762502209       11.7544589897
  H        15.8048517239        0.0194906225        9.5697918895
  H        14.3436397720        1.6852068571        8.7909773416
  H        12.8609141057        2.8602052670       10.4675991284
  H        12.7779705755        2.0921186584       12.8002410027
  C        16.1373571873        1.5930725612       14.0334139606
  C        17.1546575959        2.1860997932       14.6663494092
  H        17.8716825812        2.9026800450       14.3394311524
  H        15.9834416704        1.9687653578       12.9976406112
  C        12.1199155870       -1.7949572490       18.1793275943
  C        12.8367621142       -3.0107397602       18.5550403763
  C        12.8711218237       -3.4201544392       19.9110847962
  C        12.1211460867       -2.6777377112       20.8498305012
  C        11.3874836215       -1.5383344610       20.5002113139
  C        11.3365930309       -1.1004386220       19.1266413900
  H        10.9102728524       -0.1497511750       19.0006620312
  H        10.6791582535       -1.1525642309       21.2582069356
  H        12.0067599777       -2.9316200558       21.9128411441
  H        13.4576979843       -4.2709802276       20.2090047299
  H        13.5158699139       -3.4164691480       17.8166684173
  C        10.1339222093       -2.8699731519       16.7560016051
  C         9.0519702906       -3.3668081474       16.1337499521
  C         8.9149452959       -3.2857916297       14.7335963340
  C         9.8985516848       -2.6892314640       13.9416237205
  H         9.8086923236       -2.4028008489       12.9072605641
  H         7.9933585923       -3.7103119482       14.3262359847
  H         8.2707480269       -3.8565395198       16.6644195711
  H        10.3241408454       -3.1490675495       17.7554358991
  C        12.1594082009       -1.5760263844       12.4785892989
  C        12.9135232103       -2.5887415032       11.8233479848
  C        12.7366620864       -2.8679213943       10.4977161017
  C        11.8292443513       -2.1726620226        9.7019980120
  C        11.1291280332       -1.1268084625       10.2663953455
  C        11.2466936932       -0.8589489090       11.6849446665
  H        10.6668097192       -0.0422846149       12.1376862748
  H        10.4437926912       -0.5141353851        9.7101532138
  H        11.6983946615       -2.3658285401        8.6475728932
  H        13.3330415510       -3.7014852477       10.0922066308
  H        13.5712157834       -3.2414912540       12.4154305574
