140

  C         8.0688369077        8.5384811378        1.5100647932
  C         6.9917781645        9.1943459896        2.3454052298
  C         5.8662948678        9.7341160588        1.6223050274
  C         4.7296604573       10.3419195632        2.3173767984
  C         3.7595038479       11.0177883934        1.6447914269
  C         7.1363438513        9.4863061415        3.8015562247
  C         7.9675818224       10.5836159218        4.1940813414
  C         7.8978854404       11.1246142456        5.5142796252
  C         7.1562455986       10.4254846202        6.4624213721
  C         6.2897798260        9.3681097062        6.0941633973
  C         6.2998424082        8.9248255519        4.8088719791
  H         4.6093817682       10.2103908657        3.3882218802
  H         2.8245435953       11.4505633109        2.1396806436
  H         8.7054568266       10.9386672245        3.4471792402
  H         8.5616971511       12.0043527591        5.7330796537
  H         7.2250540790       10.7497864082        7.5549479953
  H         5.5047613286        8.9830640705        6.7342015733
  H         5.6159528800        8.0988338200        4.5334657509
  C         7.9666291854        8.5306543979        0.0275921717
  C         9.0337941100        7.8837775129       -0.6557362623
  C        10.1858015190        7.3882531892       -0.0161879802
  C        10.2946383321        7.4684108386        1.4334338309
  C         9.2074779287        7.9785150367        2.1697303267
  C         5.8383726401        9.7660494717        0.1565349602
  C         6.8560566257        9.1416622706       -0.6170217479
  C         6.8822577950        9.4999522464       -2.0324196771
  C         7.8244362457       10.4619616191       -2.3551039618
  C         7.9644133772       11.0702232946       -3.6453347408
  C         7.0097508899       10.7290504108       -4.6649779780
  C         6.0752231601        9.7476757441       -4.3308371626
  C         5.9858322071        9.1441439942       -3.0491622347
  H         5.2244483992        8.4028214753       -2.8727808462
  H         5.3122124200        9.3612784661       -5.0383313339
  H         6.9099747246       11.0449713819       -5.6863010527
  H         8.6970909767       11.8937471900       -3.8399462142
  H         8.6432722759       10.6136197587       -1.6446765459
  C         4.8034287724       10.5869174850       -0.4551466768
  C         3.8275168971       11.2001051524        0.2541388453
  H         3.1167734385       11.7749568620       -0.3247015288
  H         4.7572091370       10.6390375417       -1.5251040485
  C         9.2041475660        7.6569115978        3.5660195257
  C         8.3985612100        6.5202212576        3.9151218771
  C         8.4182012790        6.0182656899        5.2076750178
  C         9.1309743750        6.7281089381        6.2089860981
  C         9.8726934649        7.8970683186        5.8711420460
  C         9.9864088567        8.3109320229        4.5376878379
  H        10.4375544328        9.2603179940        4.3397499798
  H        10.5504470840        8.3862213616        6.6002359758
  H         9.0797416493        6.2510056427        7.2086252703
  H         7.8046505475        5.1681990507        5.5199586752
  H         7.8390785639        6.1263296407        3.0531260827
  C        11.4176633726        6.8666737725        2.0335039298
  C        12.2945004063        6.1056173198        1.3322155094
  C        12.2189405690        6.0436723764       -0.1061679876
  C        11.2082307155        6.7230492289       -0.7949956343
  H        11.2252854783        6.7685238409       -1.8998365846
  H        12.8609958764        5.3630466237       -0.6875411935
  H        13.0596355676        5.4819513372        1.8661850200
  H        11.3921842556        6.7899380879        3.1359527473
  C         8.9134146298        7.4888576112       -2.0976020754
  C         8.1892087315        6.3450536708       -2.4004737848
  C         8.3153719431        5.8628386338       -3.7055856081
  C         9.1889174920        6.4242345654       -4.6924042651
  C         9.8592174005        7.6393899282       -4.3471398969
  C         9.6810906610        8.1873885029       -3.0554436027
  H        10.3471720789        8.9957361354       -2.7594492208
  H        10.6434868856        8.0220863590       -5.0220113833
  H         9.2842517030        5.8949901243       -5.6459917641
  H         7.9151951207        4.8810209611       -3.9615565061
  H         7.7314512112        5.8329556184       -1.6307415243
  C        15.4307101491        8.2808149507        1.5515355869
  C        14.4088213609        8.9478014205        2.3126388754
  C        13.3868778444        9.7030545252        1.6496858151
  C        12.4810940001       10.4685793470        2.3223556819
  C        11.4278843786       11.1490578927        1.7471078125
  C        14.5437549218        9.1492477694        3.7600398310
  C        15.3922894373       10.1436829901        4.2796622149
  C        15.3061985918       10.5637155096        5.6270909665
  C        14.3638584905        9.9733466927        6.4835813188
  C        13.5061828693        8.9777918412        5.9847050639
  C        13.5377429980        8.6533199446        4.6472528444
  H        12.5354100569       10.3769866198        3.3816808672
  H        10.7485059608       11.6673377208        2.3931857038
  H        16.2073374467       10.5442497636        3.7194504074
  H        15.9638424035       11.4014411840        5.9067591022
  H        14.3423374820       10.2628181261        7.5325740505
  H        12.7887238151        8.4378497036        6.6550326310
  H        12.8363227492        7.9616341233        4.1740329932
  C        15.3995631060        8.4406111923        0.0949563231
  C        16.4181652935        7.7555856593       -0.7177875408
  C        17.5836619584        7.2081396690       -0.0374679109
  C        17.5312508524        7.0820480407        1.4189357092
  C        16.4134876796        7.4782629035        2.1919235018
  C        13.4382570820        9.8675090038        0.1515874258
  C        14.4825703878        9.3131816325       -0.5832872467
  C        14.5345880153        9.6297073190       -2.0641343325
  C        15.3368960714       10.6900879283       -2.6261844687
  C        15.2052477767       11.0102770147       -4.0476571889
  C        14.3394033775       10.3437044932       -4.9088611615
  C        13.4907826617        9.4018900242       -4.3136771854
  C        13.5683219193        9.1311888695       -2.9742768117
  H        12.9494055991        8.3223509796       -2.6033126107
  H        12.5730387846        9.0172552742       -4.8821127886
  H        14.2012736098       10.6940575515       -5.9177647389
  H        15.8061965555       11.7960081075       -4.5542048273
  H        16.1870671067       11.0749470717       -2.0459792976
  C        12.3368985697       10.6719283078       -0.4408547674
  C        11.4158031582       11.3417080626        0.3805545021
  H        10.5318479236       11.8078446492       -0.0634218195
  H        12.2721101946       10.8230648846       -1.5140316621
  C        16.3061710493        7.0028209726        3.6031799960
  C        15.4415083666        5.9493284967        3.8786250075
  C        15.1635929600        5.6070547785        5.2039446157
  C        15.9882497328        6.0685518542        6.2309658635
  C        17.0505744106        6.8961960203        5.9516168981
  C        17.1505895002        7.4092251690        4.6373644276
  H        17.8887829615        8.1856783894        4.4066449845
  H        17.8097390294        7.2358698366        6.7185530131
  H        15.8771031980        5.7737946469        7.3098038756
  H        14.3496655620        4.8864470199        5.4134835653
  H        14.7665996454        5.5029327002        3.1235604386
  C        18.7319128366        6.4254140914        1.9884447418
  C        19.7723100248        5.9156426802        1.2583559783
  C        19.7791559301        5.9821380271       -0.1812530381
  C        18.7045546035        6.6446901637       -0.7511178732
  H        18.5743611602        6.5222114661       -1.8500443494
  H        20.5561961698        5.5726602794       -0.7576346481
  H        20.6050279115        5.4460604493        1.7970221943
  H        18.7606018497        6.3512072526        3.0937547731
  C        16.2772249817        7.4872322284       -2.1616828516
  C        15.5206076381        6.3678294378       -2.5452095840
  C        15.6278675722        5.7561450151       -3.8465618207
  C        16.6382462828        6.3403609366       -4.6589389606
  C        17.3735648904        7.5015040814       -4.3873070586
  C        17.1150629437        8.0923881179       -3.1092272351
  H        17.7999809881        8.8598837105       -2.7392113810
  H        18.0608185162        7.8631320444       -5.1812697784
  H        16.7490140341        5.8149045589       -5.6725938009
  H        15.1667688565        4.8186111645       -4.1121101287
  H        14.8822009513        5.9356268866       -1.8147363369
