140

  C        11.8733193398        6.3562026867        0.2967983834
  C        10.7502729416        7.0431839156        1.0138390097
  C         9.6817058058        7.6365349246        0.2866730038
  C         8.6259207535        8.3439714970        0.9589950600
  C         7.6763120103        9.0249342662        0.2954442302
  C        10.7775805669        7.3728553625        2.5236829009
  C        11.4878254659        8.4673581622        2.9075460917
  C        11.3567251669        9.0439766208        4.1602149118
  C        10.5624979814        8.4031496923        5.1755230082
  C         9.9343424753        7.1803504132        4.8314985863
  C         9.9658290526        6.7164457742        3.5024338408
  H         8.5616277145        8.2725267616        2.0390040737
  H         6.9569432647        9.6427223508        0.8030579307
  H        12.2492108394        8.9631254360        2.1901842468
  H        11.9760718101        9.8938483434        4.5120186119
  H        10.6823084081        8.6625648963        6.2305470240
  H         9.4672311645        6.6213995414        5.6165817822
  H         9.3887100937        5.8106062975        3.2686073925
  C        11.8975838128        6.4212971104       -1.2093009380
  C        12.9701995569        5.7930649678       -1.9450133954
  C        14.0530292796        5.2033133670       -1.2162528768
  C        14.0214142282        5.1288530868        0.3026552315
  C        12.9102328614        5.7404072135        1.0251100072
  C         9.7090414652        7.7315898118       -1.1199188641
  C        10.8505126344        7.1653797490       -1.8699320190
  C        10.9786149882        7.5860780094       -3.3014476328
  C        11.9840551567        8.3850061018       -3.7838833817
  C        11.9370736681        8.9046793152       -5.0421605648
  C        10.9259139968        8.5063376738       -5.9333044453
  C         9.9337017134        7.6069876776       -5.4990215439
  C        10.0157215141        7.1032325406       -4.2031152386
  H         9.2542693783        6.3988612064       -3.8346954275
  H         9.1280101701        7.4444890045       -6.1951335121
  H        10.8988816548        8.7672837821       -7.0716000009
  H        12.7401515495        9.4684378349       -5.3909606337
  H        12.8631466858        8.6874045643       -3.1878235160
  C         8.6818443937        8.4355693274       -1.7591193196
  C         7.7164283815        9.0859262720       -1.1406939686
  H         6.9393114538        9.6255446107       -1.6684221213
  H         8.7405201700        8.5079660885       -2.8192431500
  C        12.7921606923        5.3891242355        2.5135034662
  C        11.9810073374        4.3516304074        2.9464824648
  C        12.0794742430        3.8280577899        4.2909627714
  C        12.8007460278        4.5703304472        5.2490282731
  C        13.4255900686        5.7758840019        4.8094711051
  C        13.6033652971        6.0607494654        3.4840104974
  H        14.3562974011        6.7635167855        3.1074469890
  H        13.9029141674        6.3435002750        5.5746098702
  H        12.7701858601        4.2808699367        6.3247114852
  H        11.5755102542        2.9158080023        4.5943974490
  H        11.3375832238        3.7772169703        2.2963238323
  C        15.0650058153        4.3419318346        0.9249276960
  C        15.9621049195        3.6821326200        0.1906207515
  C        16.1087811836        3.8278586907       -1.2229190730
  C        15.1374684205        4.5691271715       -1.9080902324
  H        15.2348395406        4.6369273076       -2.9793235323
  H        16.8149075831        3.1984783881       -1.7980645592
  H        16.6084167296        2.9492579767        0.6592744494
  H        15.1636039155        4.3091517617        2.0106817893
  C        12.8095185244        5.3284407534       -3.3670510884
  C        11.7992635717        4.4095476948       -3.5018274282
  C        11.4709451845        3.8532661933       -4.7080059901
  C        12.1968306548        4.2852591306       -5.8397731948
  C        13.1016849190        5.3005610557       -5.7860365103
  C        13.5177135617        5.8082774992       -4.4932200362
  H        14.3136328138        6.3849951327       -4.4015872591
  H        13.7110607147        5.6911965888       -6.5987743505
  H        11.9903130604        3.8868389326       -6.8074142593
  H        10.6909815833        3.0834719507       -4.8317895702
  H        11.2993367546        4.0238525167       -2.6197251364
  C        18.9754281432        6.5296272936        0.3025331022
  C        18.0514765335        7.3543991946        1.0379048625
  C        16.9986071005        7.9235071351        0.3570816869
  C        15.8443653315        8.4268191843        1.0723136902
  C        14.7887683933        9.0227300450        0.3882619436
  C        18.1126678316        7.7343077496        2.4762684206
  C        18.9056070075        8.8527067041        2.8345203844
  C        18.8079280317        9.4604952294        4.1339009023
  C        18.0458534181        8.8470165577        5.1173797788
  C        17.3302365943        7.6687481375        4.7233296528
  C        17.2922113849        7.1935068007        3.4394797224
  H        15.6982915342        8.3281398790        2.1534996541
  H        13.8864097671        9.4385210265        0.9226891277
  H        19.4852914511        9.3685650405        2.0392853469
  H        19.2547277996       10.4296831400        4.3051454643
  H        18.0400468512        9.3442030249        6.1043890489
  H        16.6010947758        7.2582614919        5.4249831312
  H        16.6334337857        6.3630014354        3.1679526148
  C        18.8887659723        6.4409748755       -1.1838435425
  C        19.8637799544        5.6539156830       -1.8800909628
  C        20.9892968078        5.1089784928       -1.1965287841
  C        21.0376913471        5.1435722040        0.1964087898
  C        19.9740166864        5.7738149947        0.9316014499
  C        16.8844675842        7.8451720515       -1.0888216679
  C        17.8324464222        7.1166169373       -1.7979803347
  C        17.7723691538        7.3316680810       -3.2582367264
  C        18.5972605293        8.3674293307       -3.8015683074
  C        18.5680429720        8.7315182851       -5.1558921570
  C        17.6284527897        8.1653060976       -6.0190486669
  C        16.8097775102        7.1584500965       -5.5162214941
  C        16.8064825616        6.8462664980       -4.1068540839
  H        16.2045113119        5.9855926770       -3.8077945900
  H        16.2099130912        6.5985010258       -6.1686144477
  H        17.7475216391        8.3714180844       -7.0850801052
  H        19.2069142633        9.4938556392       -5.4653287082
  H        19.4607065602        8.6968560057       -3.1447969542
  C        15.8665235934        8.5475193242       -1.7358449976
  C        14.8438508612        9.0567187003       -1.0267160182
  H        14.0247351238        9.6408609124       -1.4778831970
  H        15.9560078081        8.7172712540       -2.8049764515
  C        19.9221244265        5.5059166989        2.4090268448
  C        19.0396354454        4.5633488558        2.8832739664
  C        19.0019644208        4.2536023342        4.2549762176
  C        19.8889958046        4.8261710132        5.1614658772
  C        20.8152718852        5.7970747418        4.7257927152
  C        20.8173715699        6.1263819639        3.3753678636
  H        21.4708035917        6.9496395670        3.0324887821
  H        21.5490067451        6.1995340777        5.3785289249
  H        19.9545399209        4.5020164890        6.1644418436
  H        18.1942351616        3.5133645400        4.5765047246
  H        18.3196606994        4.0378943158        2.1934526556
  C        22.0411985548        4.4166504671        0.8523459746
  C        23.0834437303        3.8420400467        0.1720737306
  C        23.0395939440        3.7979121050       -1.2529005254
  C        22.0126457038        4.3952915724       -1.8979954835
  H        22.0240414679        4.4550722024       -3.0173474421
  H        23.7719514521        3.1748653894       -1.7517987854
  H        23.8678064510        3.2751840221        0.7288501867
  H        22.1352642695        4.3991081285        1.9752732575
  C        19.8312399942        5.3841313837       -3.3688010546
  C        18.8697693519        4.4252725549       -3.7658399018
  C        18.7188450904        4.1064022212       -5.1619031576
  C        19.5523680080        4.6467564993       -6.0856686343
  C        20.4608417199        5.6781061118       -5.7267113851
  C        20.5056529347        6.1285134818       -4.3826955842
  H        21.1892939648        6.8964921405       -4.1159832303
  H        21.0131475412        6.2423584446       -6.4686792106
  H        19.4666807997        4.3642586745       -7.1034189514
  H        17.9359118022        3.3387140265       -5.4121664664
  H        18.2737686824        3.9063410171       -3.0038392693
