140

  C        11.2615863883        6.9746208601        0.4865264298
  C        10.2458633567        7.7424767300        1.1339524040
  C         9.2195860016        8.2931597741        0.3583565002
  C         8.0416125755        8.8296768971        0.9823941790
  C         7.0761486203        9.5177689768        0.2309432686
  C        10.2178347325        8.0135985934        2.5381309000
  C        10.9178071760        9.1574567892        2.9290870434
  C        10.8852507239        9.5600653488        4.2647242473
  C        10.0671880829        8.9338782327        5.1828546072
  C         9.4443961646        7.7816594068        4.7764356870
  C         9.3833749142        7.3764616986        3.4272280506
  H         7.8570907371        8.7969737595        2.1009214543
  H         6.2175044088        9.8167332161        0.8351199216
  H        11.3937810351        9.8663210472        2.2098794427
  H        11.4848553794       10.4484492477        4.5758523916
  H        10.0880389141        9.2387480135        6.2895027781
  H         8.9006856755        7.2134179300        5.4515722511
  H         8.8208577831        6.5475043832        3.0471665831
  C        11.2978094474        6.8840751609       -1.0167097368
  C        12.3075877101        6.0343009164       -1.6250909915
  C        13.3440443583        5.5421816509       -0.8112736476
  C        13.3520228225        5.6155692354        0.6501814286
  C        12.1905168218        6.1966022445        1.2524981759
  C         9.3042427837        8.4032603086       -1.0779754359
  C        10.3843653244        7.6788319678       -1.7759125747
  C        10.3879462762        7.9984665040       -3.2457775987
  C        11.0601888386        9.1193605316       -3.6624237819
  C        11.0039019095        9.5827761178       -4.9965678462
  C        10.1497401043        9.0336869971       -5.9031462619
  C         9.2896240717        8.0461098922       -5.4294152708
  C         9.4082355992        7.4427677811       -4.0955940654
  H         8.7339726335        6.7258266853       -3.6916591353
  H         8.5305847094        7.5818815223       -6.0807423425
  H         9.9896071982        9.3982569037       -6.9379708009
  H        11.6392980680       10.4099152969       -5.3419526029
  H        11.7560096963        9.6300204023       -2.9984551743
  C         8.3279666809        9.2049471040       -1.8038202213
  C         7.2616490422        9.7742664841       -1.1592682725
  H         6.4726996824       10.1916228425       -1.7655567267
  H         8.4618401251        9.3871605675       -2.8753309461
  C        12.0380713376        5.8921855170        2.6826075410
  C        11.3727528748        4.7496238477        3.1383184751
  C        11.4136449855        4.2937896552        4.4323773514
  C        12.1672143589        4.9675589063        5.3796550415
  C        12.7926460130        6.1641543399        4.9643357077
  C        12.7873858107        6.5403687538        3.6192834007
  H        13.3826377807        7.4224219235        3.4306360053
  H        13.3594072003        6.7779586947        5.6779474132
  H        12.1073077824        4.6287652926        6.3947544266
  H        10.8116903372        3.3813234455        4.6963041958
  H        10.7843370602        4.1565630887        2.3789814844
  C        14.4873353019        5.0498550506        1.2654992335
  C        15.6484808317        4.6332143931        0.6617656764
  C        15.6450607103        4.5604191838       -0.7658084120
  C        14.4809869379        4.9335214446       -1.4620044814
  H        14.5151993262        4.9207898826       -2.5908397749
  H        16.5234562111        4.2287145016       -1.3565250434
  H        16.5204232305        4.2509902405        1.2278890373
  H        14.7241428252        5.1854652590        2.3262905251
  C        12.2404256454        5.5953880430       -3.0482358200
  C        11.2971680137        4.6969738235       -3.4108961189
  C        11.0483221930        4.2468687595       -4.7329058526
  C        11.9735369969        4.6626144316       -5.7183278337
  C        13.0020937013        5.4916255275       -5.3309577665
  C        13.1321077042        6.0247650161       -4.0000540693
  H        13.6347631731        6.9538729425       -3.7455289440
  H        13.7857969890        5.7208774461       -6.0673220775
  H        11.9892076675        4.3811205698       -6.8253704078
  H        10.1722319801        3.6472429081       -4.8772224262
  H        10.5518797740        4.2581678647       -2.7121299484
  C        18.2768166104        6.8966750676        0.9588432168
  C        17.3010585442        7.7066432438        1.5862185459
  C        16.2933653207        8.2369942074        0.7550735001
  C        15.1286760265        8.9324812443        1.3213437834
  C        14.2135008421        9.6445367754        0.5484646105
  C        17.3047954803        8.0234743412        3.0245619884
  C        18.1360601841        9.0100358836        3.5377740902
  C        18.0112519960        9.4553366956        4.8697421163
  C        16.9922548926        8.9242751660        5.6427045792
  C        16.1089721823        7.9394919012        5.1884677665
  C        16.3495018783        7.4398218773        3.8611086951
  H        14.9167385242        8.7996252898        2.3895872768
  H        13.4443159675       10.2334557523        0.9828049699
  H        18.7805888032        9.5225493648        2.8224826556
  H        18.6569516520       10.2145253803        5.2782304274
  H        16.7715252132        9.2975818561        6.6514614702
  H        15.4504675957        7.4231881314        5.9589725606
  H        15.8019288229        6.6029646215        3.4176520746
  C        18.3465835280        6.7944791278       -0.4932484831
  C        19.5303862802        6.0483179278       -1.0509176485
  C        20.5931779165        5.7557140592       -0.2139363541
  C        20.4539608092        5.7578210240        1.2077809953
  C        19.2340373636        6.2083255018        1.7923857576
  C        16.3640609551        8.1724120782       -0.6755121358
  C        17.4468824045        7.4730431732       -1.2978774533
  C        17.6132451805        7.7932120958       -2.7935279607
  C        18.4193189944        8.9024667171       -3.1452760609
  C        18.4076854470        9.3584271313       -4.4421900613
  C        17.5394611033        8.7600163560       -5.3967759646
  C        16.8108981707        7.6270658979       -5.1149359254
  C        16.7773112612        7.1722870791       -3.7449538119
  H        16.1161475478        6.3781578172       -3.4108681802
  H        16.1349923017        7.1560479051       -5.8249279116
  H        17.5923492592        9.1347217125       -6.4012180652
  H        19.0501574153       10.2044178188       -4.8137032779
  H        19.0967881988        9.2896732951       -2.3417948145
  C        15.3668004859        8.8276193837       -1.4785385169
  C        14.3334101495        9.5561512595       -0.8595547894
  H        13.6107750722       10.1273611947       -1.5017871648
  H        15.4233291387        8.9888514266       -2.5576847828
  C        18.9870192176        5.7869424835        3.2371336565
  C        18.2666599005        4.6307502605        3.4185101500
  C        18.0993659179        4.0953539584        4.7120421465
  C        18.6667502591        4.6565087861        5.8700662099
  C        19.4206811790        5.8388595636        5.6485887334
  C        19.4988340735        6.4380454794        4.3261201500
  H        19.9664442082        7.4188062536        4.1360150158
  H        19.9663711482        6.2475778556        6.4713503796
  H        18.6027633132        4.2480339021        6.8549900746
  H        17.5496178456        3.1662547929        4.8666020891
  H        17.8208553374        4.2022220160        2.5665155211
  C        21.4547079598        5.1041892693        2.0492811457
  C        22.6036731095        4.5772101742        1.5577448243
  C        22.8912031454        4.7729876705        0.1708492288
  C        21.8917520665        5.2152418291       -0.6495587310
  H        22.0978955651        5.3886660869       -1.7099022291
  H        23.8085291507        4.4172583065       -0.3047035361
  H        23.2458327179        4.0075003189        2.2249194913
  H        21.2316255847        4.9509073652        3.1008635220
  C        19.5117876976        5.6067865242       -2.4993792834
  C        18.5976657393        4.5862657965       -2.8530021529
  C        18.6782757604        4.1195931164       -4.2455107440
  C        19.6153935876        4.5745435120       -5.1594048429
  C        20.4491505519        5.6042310116       -4.7321325140
  C        20.4254057487        6.0573918603       -3.4504264009
  H        21.1661486336        6.7935187545       -3.0658381722
  H        21.2621084627        6.0770732663       -5.2578776038
  H        19.4727787448        4.3008477127       -6.1908902973
  H        17.9381233000        3.3994131894       -4.5840372297
  H        18.0053702629        4.0876569807       -2.0856210445
