140

  C         0.8600901200        1.1097075471       15.0054299016
  C         1.8441100910        1.8560805155       15.7628455764
  C         2.9146906952        2.3654086457       15.0549139410
  C         4.0026995175        3.1208121148       15.7367458465
  C         4.9478411422        3.7928602154       15.1064743188
  C         1.7354300438        2.2138190569       17.2497895282
  C         1.1211634063        3.3941870100       17.5807209246
  C         1.2173289503        3.8619252826       18.9451900954
  C         1.9124241295        3.2023171535       19.9490008869
  C         2.5288088672        1.9944718502       19.5740672391
  C         2.4741672523        1.5637487436       18.2834588352
  H         3.9830687259        3.0296940508       16.8128506445
  H         5.6896421011        4.3356645092       15.7079183922
  H         0.6693282277        3.9432185880       16.7331310514
  H         0.7658763779        4.8081295303       19.1030559981
  H         1.9193602330        3.4746932030       21.0400038195
  H         3.1151372068        1.4259119073       20.3530341834
  H         2.8862741921        0.5648287005       18.1105991239
  C         0.8878991316        1.0508956795       13.4926855505
  C        -0.1216458227        0.3314640759       12.8099285332
  C        -1.2745059455       -0.1772843603       13.5668320769
  C        -1.2245504838       -0.1713244575       15.0002840564
  C        -0.1663468237        0.4012437117       15.7105555558
  C         3.0236638872        2.2556956832       13.6205971479
  C         2.0419759913        1.6359388942       12.8307585670
  C         1.9973056178        1.9633139969       11.3193368634
  C         1.0607900742        2.8568591251       10.7891790660
  C         1.0500132337        3.2116315217        9.4120390474
  C         1.9388031183        2.6693625358        8.5234557389
  C         2.8586867924        1.7636255041        9.0164585921
  C         2.9259595915        1.4621721136       10.3748335004
  H         3.7791233659        0.8329311161       10.6025219700
  H         3.4338185742        1.2376228805        8.2397501173
  H         1.9140442280        2.9082632064        7.4671920086
  H         0.2825864472        3.8733934840        9.0467565893
  H         0.2497445977        3.2539936037       11.4224926122
  C         4.1119367341        2.9196564486       12.9527162600
  C         5.1181920476        3.5263523930       13.6687515739
  H         5.8667765538        4.0557649253       13.0864435269
  H         4.1815438332        2.8690819395       11.8650572899
  C        -0.0291610850       -0.0618051703       17.2060227227
  C         0.7502653307       -1.1815423449       17.5312558339
  C         0.8086256127       -1.5595246726       18.8688685057
  C         0.0690470707       -0.8124519428       19.8646972706
  C        -0.7910918285        0.2291488123       19.4012226169
  C        -0.7974344853        0.5713454406       18.1138184260
  H        -1.4712087457        1.3507427897       17.7490570263
  H        -1.4248654415        0.8111165300       20.0583236005
  H         0.0345672309       -1.0332200128       20.9299174169
  H         1.3113641645       -2.5009455527       19.1871033569
  H         1.2675464634       -1.6901480638       16.7302075491
  C        -2.3894630774       -0.7889849344       15.6293715790
  C        -3.4569452104       -1.3621550574       14.9153997875
  C        -3.4843358345       -1.2661772912       13.5328858136
  C        -2.3779696564       -0.7334444532       12.8557062437
  H        -2.2977337973       -0.9143477837       11.7995435997
  H        -4.2517348239       -1.7724297606       12.9363393871
  H        -4.1751304289       -1.9011914611       15.4881708042
  H        -2.3719349602       -1.1328044214       16.6869538906
  C        -0.0315159853       -0.0723330313       11.3639788258
  C         0.9625305989       -0.9818110709       10.8629712412
  C         0.9521425670       -1.4008276601        9.4977517863
  C         0.0402240798       -0.7903828981        8.6369938966
  C        -0.9448668616        0.1579974850        9.0552019645
  C        -1.0230277139        0.5263876942       10.4558549664
  H        -1.8580889734        1.1699884638       10.8134108180
  H        -1.6025061717        0.6040177131        8.3406978168
  H         0.0326861634       -0.9794700044        7.5692238278
  H         1.7117998265       -2.1757391880        9.2242005549
  H         1.7435288968       -1.3396452501       11.4869157051
  C         8.1277196723        1.2127356279       15.0971731541
  C         9.1418532244        1.9446651681       15.8418960192
  C        10.2445201347        2.4629649585       15.0134584300
  C        11.4908844646        2.8324547999       15.6318843158
  C        12.6338652224        3.2944271414       14.9173438633
  C         9.0977744642        2.2716379798       17.3177565427
  C         8.2810355595        3.3601181045       17.6932497387
  C         8.1735547295        3.7551092152       19.0088576523
  C         8.9676621353        3.1314991963       19.9645174808
  C         9.8531934383        2.1392084896       19.5765305817
  C         9.9388077458        1.6670239930       18.2892203735
  H        11.5903656212        2.8880304173       16.6915022930
  H        13.6010468963        3.4686459317       15.3894266865
  H         7.6970352754        3.6584330656       16.8667281438
  H         7.4899634193        4.5789153615       19.2632493745
  H         8.9522415441        3.5174601403       21.0079406307
  H        10.6221529893        1.8359604984       20.3225274749
  H        10.6881600321        0.8683097872       18.0551800121
  C         8.1591536799        1.2149407428       13.6234511727
  C         7.1051260072        0.5839542270       12.9759592027
  C         5.9693606889        0.0810859075       13.6713158230
  C         5.9536957792       -0.0198546386       15.1332874058
  C         7.1044830660        0.5302355012       15.7863459672
  C        10.2100112395        2.4562214848       13.6317252663
  C         9.2000008905        1.8336485286       12.8451212183
  C         9.0316489204        2.3502972724       11.4543333890
  C         8.3249312370        3.5374329004       11.2117997670
  C         8.1668522873        3.9994258928        9.8866332127
  C         8.8925311320        3.4050568806        8.8442390107
  C         9.7230914653        2.3402107494        9.1567587469
  C         9.8222851197        1.7827903612       10.4297099857
  H        10.4952596425        0.9377660943       10.5681662540
  H        10.3602079506        1.9180435072        8.3701605702
  H         9.0248062443        3.7452408667        7.8283942473
  H         7.5622725255        4.8318589840        9.6755809934
  H         7.7941369338        3.9960175720       12.0427203670
  C        11.2990190619        3.0403967631       12.9184717237
  C        12.5176862525        3.3677472266       13.4830454459
  H        13.3662005656        3.6543557365       12.8261403125
  H        11.2754726854        2.7988988419       11.8296575382
  C         7.0896918507        0.3215552575       17.3401868989
  C         7.9044235277       -0.6937980075       17.8654265394
  C         7.8239536815       -1.0403377203       19.2421725499
  C         6.9838367399       -0.3552243532       20.0449874453
  C         6.1622177976        0.6590091704       19.5087479349
  C         6.1761204869        1.0436640453       18.1644596471
  H         5.5459141204        1.7813295377       17.7040142767
  H         5.4442412505        1.0925724843       20.2298343237
  H         6.9073360983       -0.6675420985       21.0826396220
  H         8.4803592035       -1.7876059009       19.7256401461
  H         8.4633813814       -1.2555818400       17.1656782250
  C         4.9031565700       -0.7082625140       15.7813197753
  C         3.8135466156       -1.1329043123       15.1253407398
  C         3.7241844134       -1.0471992233       13.7000078761
  C         4.8671876837       -0.5533838372       12.9887349272
  H         4.8715194436       -0.6192409764       11.8875067581
  H         2.8821267874       -1.4685964689       13.1094707449
  H         3.0330340379       -1.6792819003       15.6705842220
  H         4.9676477268       -0.5978390655       16.8975273344
  C         7.1826042431        0.3182823091       11.5218007624
  C         7.9739711159       -0.7546416109       11.0562831721
  C         7.9288878047       -1.0213439962        9.7011773545
  C         7.2186901712       -0.3261056026        8.7624382088
  C         6.4977601174        0.7450953792        9.2342092513
  C         6.4163744019        1.0107307276       10.6061734985
  H         5.7799320939        1.7836184994       10.9580228046
  H         5.9401224799        1.4365277536        8.5492234064
  H         7.3025758333       -0.5822076526        7.6871910870
  H         8.5718890414       -1.8580932954        9.3833089953
  H         8.3741219013       -1.3913165392       11.8229999415
