140

  C         3.7255537753        0.0330688272       15.1770334464
  C         4.7286813592        0.6613380763       15.9795571240
  C         5.8800624455        1.2217682600       15.4013944403
  C         7.0076693972        1.6704166684       16.1343860452
  C         8.1140798971        2.2239117073       15.5818848423
  C         4.5272724470        1.0856908531       17.4768636497
  C         3.8654787032        2.2674239610       17.7373042983
  C         3.8029410724        2.8171631203       19.0245597498
  C         4.5231336431        2.1749122094       20.0477943642
  C         5.3459106662        1.0652977849       19.7587171239
  C         5.2456424930        0.4548292848       18.5274615842
  H         7.0128472894        1.6033674891       17.1966192540
  H         8.9662764005        2.5716841376       16.1906066989
  H         3.5933014198        2.8520795061       16.8533192639
  H         3.2952389566        3.7895638970       19.1573773223
  H         4.5312447497        2.4548707707       21.1249613854
  H         5.9347618855        0.6180148223       20.5264915964
  H         5.8787909323       -0.3892515937       18.3172190264
  C         3.8332591314        0.0966877797       13.7397841179
  C         2.8836191746       -0.6467312345       12.9951032827
  C         1.7121391212       -1.2089712631       13.5414540883
  C         1.5276309061       -1.1687413644       14.9729895684
  C         2.6466989148       -0.7222735122       15.8053901618
  C         5.9718855596        1.4394169016       13.9480459834
  C         4.9062732686        0.8845809271       13.1302713125
  C         4.8887740975        1.2748015407       11.6633565275
  C         4.0428885877        2.3283856502       11.2189427909
  C         4.0490683860        2.7690308408        9.8959523352
  C         4.9407076212        2.1274004925        8.9562485038
  C         5.6031740021        1.0147852438        9.3680457714
  C         5.6578945572        0.6261761065       10.7189060612
  H         6.1208735668       -0.2829311507       11.0166909608
  H         6.1098056066        0.3515210779        8.6674569816
  H         4.8337491478        2.3403960139        7.9000460471
  H         3.3796760155        3.5855265184        9.6534555171
  H         3.3349407807        2.7789942091       11.9478787387
  C         7.1173279620        2.0823571866       13.3399999690
  C         8.1837465975        2.3743795450       14.1359833518
  H         9.1848576085        2.5633629670       13.7460087823
  H         7.1951969616        2.1175166136       12.2574856876
  C         2.6815698587       -1.1195984082       17.2138752436
  C         3.5460059082       -2.1586744712       17.5633170080
  C         3.6340562851       -2.5878139473       18.8702390025
  C         2.7881279249       -1.9988956167       19.8345311463
  C         1.9224085212       -0.9889629133       19.4780296683
  C         1.8272034541       -0.5666039646       18.1257132216
  H         1.1535466973        0.2339466173       17.8600081494
  H         1.2309245501       -0.6020221406       20.1988304134
  H         2.8037091404       -2.3522749304       20.8571392791
  H         4.2569655222       -3.4049099919       19.2738475053
  H         4.1763830991       -2.6105356949       16.7485037283
  C         0.4542744807       -1.9107003231       15.5695407765
  C        -0.4737277750       -2.5153521229       14.7889450211
  C        -0.3172843033       -2.5590092127       13.3530583167
  C         0.7325046367       -1.9328247671       12.7073422455
  H         0.7692092366       -1.9924844799       11.6216354679
  H        -1.1379718123       -3.1030386381       12.8423588859
  H        -1.2176154268       -3.1761554151       15.3023088607
  H         0.3583479066       -1.9768380258       16.7149996040
  C         3.1677089757       -0.9910664191       11.5687671738
  C         3.7922210903       -2.1514481072       11.1156659411
  C         3.6387112569       -2.5511463468        9.7520121065
  C         2.8349931182       -1.7852146033        8.8958235227
  C         2.2416333942       -0.5830235085        9.2784586270
  C         2.4413990607       -0.1619753062       10.6161908496
  H         2.0329864142        0.8020035022       11.0559420272
  H         1.6293476652       -0.0110135984        8.5574456912
  H         2.5941365019       -2.1765882822        7.9124298965
  H         4.0261085609       -3.5195181619        9.4142676126
  H         4.2981208692       -2.8773590518       11.7568283966
  C        11.0637569382        0.0231717002       14.9527598988
  C        12.1710100759        0.7611798626       15.6614924980
  C        13.2920732734        1.1810955483       14.9320178885
  C        14.4340962128        1.7976551968       15.5793320459
  C        15.4849134026        2.4130382835       14.9242604827
  C        12.0804960595        1.0803489787       17.1059067662
  C        11.3722974465        2.2193849072       17.4140975449
  C        11.2459580526        2.6905295705       18.7283603462
  C        11.8342412210        1.8993790167       19.6950171186
  C        12.6684194970        0.7900432555       19.3646706960
  C        12.7092301155        0.3697407747       18.1121791337
  H        14.6008815097        1.6579461427       16.6749921360
  H        16.3866728195        2.7522591651       15.4163240842
  H        10.9603296208        2.8004179152       16.6058287599
  H        10.5988949028        3.5068120480       18.9799621493
  H        11.7793656587        2.1965474012       20.7074999244
  H        13.1858800232        0.2734148527       20.1541807908
  H        13.2587039324       -0.5493646392       17.8786290255
  C        11.0570393683        0.0094685412       13.5014452704
  C        10.0159763520       -0.6512855085       12.8403816558
  C         8.9198988160       -1.2255947103       13.5468709148
  C         8.8804476446       -1.1727095471       14.9726046731
  C         9.9972669905       -0.5976142786       15.7135822413
  C        13.1968708248        1.2954907978       13.5021166825
  C        12.1227293754        0.7259332659       12.7624867155
  C        12.0437092421        1.0608243027       11.3057059471
  C        11.2144705001        2.1491265735       10.9871776098
  C        11.1303922941        2.5053792808        9.5919872627
  C        12.0046707680        1.9311677065        8.6608403082
  C        12.9559380092        0.9434761560        9.0507524860
  C        12.8727619579        0.4046035074       10.3899917421
  H        13.5481684951       -0.3571468872       10.6975576688
  H        13.6929795501        0.7114825207        8.2487812380
  H        12.0304182869        2.3866085142        7.6544915832
  H        10.3694660678        3.2988698247        9.3104755336
  H        10.7101054065        2.7497322999       11.7543043545
  C        14.2585433323        2.0538648968       12.8765342765
  C        15.3214386051        2.5445768898       13.5077933753
  H        16.1102874498        3.0243134732       12.9109793119
  H        14.2507430747        2.1128037914       11.8389473794
  C        10.1456339394       -0.9331774971       17.1860031665
  C        10.8610531585       -2.0843524107       17.5267116419
  C        10.7295187921       -2.5495142370       18.8755402089
  C        10.0664335031       -1.7659919329       19.8053588303
  C         9.4842980285       -0.5396499184       19.4389028406
  C         9.4337818931       -0.1506614171       18.1221280222
  H         9.1517575896        0.8572859171       17.8534901092
  H         8.9833817881       -0.0532403504       20.2618444000
  H        10.0555086687       -2.1359036690       20.8428319572
  H        11.1140105051       -3.5722633138       19.0799904665
  H        11.3352262793       -2.7207930228       16.8353493417
  C         7.7707980887       -1.7226770186       15.7023599888
  C         6.7180481323       -2.2485214530       14.9654662147
  C         6.7527516044       -2.4328956120       13.5454528621
  C         7.8255702495       -1.8937063420       12.8436836829
  H         8.0285819035       -1.9763989659       11.7623049147
  H         5.9563578666       -2.8588747699       12.9365236184
  H         5.8609513232       -2.6544539036       15.4853509930
  H         7.6369589371       -1.5253858686       16.7917850776
  C        10.1277611255       -1.0220821367       11.3731667688
  C        10.8661242728       -2.0686721724       10.9394329655
  C        10.9608953527       -2.4739645940        9.6096293303
  C        10.2503853111       -1.7145588991        8.6650925514
  C         9.4157151483       -0.6226966579        9.0415783135
  C         9.4083915716       -0.2779045532       10.3894462533
  H         8.9501850785        0.6009135040       10.7918453546
  H         8.7803062177       -0.1433351623        8.2342893157
  H        10.3704532856       -2.0060339147        7.6337727770
  H        11.5331510513       -3.3559747115        9.3053156740
  H        11.3435468794       -2.7147098071       11.6851035917
