140

  C         4.0334145007       -0.2199778685       14.1059599331
  C         5.0205290889        0.5254959782       14.8981065093
  C         6.1524817425        1.0432441734       14.1560635385
  C         7.0732040383        1.8710422763       14.8509565155
  C         8.1703480281        2.4040512778       14.2695838139
  C         4.9561026489        0.8331280364       16.3327500544
  C         4.0910573753        1.9013719451       16.8419940339
  C         4.1082642860        2.3645570914       18.1688048038
  C         5.0609499676        1.7825169116       19.1027115383
  C         5.8115258549        0.6906615712       18.6544154495
  C         5.7922425199        0.2229542038       17.3370255782
  H         7.0208930109        2.0802560047       15.8939261713
  H         8.9515561600        2.9432239071       14.8299851746
  H         3.3457052541        2.2932258246       16.1865762275
  H         3.4449156480        3.1983429673       18.4092551615
  H         5.0202572981        1.9083185204       20.1743774077
  H         6.4428299756        0.1468960048       19.3360137836
  H         6.4947628330       -0.5695640794       17.0528613134
  C         4.0455634911       -0.1083322450       12.6480096328
  C         3.1583880128       -0.9298009005       11.8941941467
  C         2.0367285779       -1.4668027422       12.5750199750
  C         2.0024370293       -1.5974346737       14.0158387560
  C         3.0179802126       -0.9878897287       14.7827570751
  C         6.2050128871        1.0872661737       12.6884531024
  C         5.0827350846        0.6047086190       11.9959061642
  C         5.1193557698        0.7387961854       10.5223724640
  C         4.6964977093        1.9892972734       10.0182875964
  C         4.8315788704        2.3726102175        8.6704028302
  C         5.4346688772        1.4331719156        7.8212936268
  C         5.9502870646        0.2160266854        8.2630731191
  C         5.8230110605       -0.1199794406        9.6238042848
  H         6.3004816477       -0.9781747639       10.1617084676
  H         6.4287054311       -0.5533104628        7.5708799825
  H         5.6281539276        1.6734044523        6.7554077660
  H         4.6825539125        3.4199635767        8.3776640130
  H         4.1356018523        2.6561522563       10.6715183084
  C         7.4088191177        1.5573606712       12.0643080924
  C         8.3441329824        2.1760121441       12.9027166794
  H         9.2948234531        2.5058644706       12.4333144963
  H         7.6558813393        1.4242448675       11.0087016939
  C         3.0911455887       -1.4098815933       16.2638210260
  C         3.9361254438       -2.4635686777       16.6107114676
  C         4.0640516961       -2.8222609938       17.9783916376
  C         3.2061780122       -2.2488107351       18.9472299347
  C         2.2782834235       -1.2794299447       18.5315130440
  C         2.2597760834       -0.7907661910       17.1873257707
  H         1.6355605630        0.0258815284       16.8714518183
  H         1.6756446582       -0.7801126084       19.3246628561
  H         3.2902836135       -2.4507548416       20.0003104685
  H         4.9299439958       -3.5041231666       18.2114805889
  H         4.7277734598       -2.7491562757       15.9667006641
  C         0.9121130685       -2.3014843899       14.5603105225
  C        -0.1642812390       -2.8160266005       13.8428259785
  C        -0.1167931056       -2.6385128498       12.4484255690
  C         0.9392043999       -1.9821924271       11.8541908208
  H         0.8415624805       -1.9293047834       10.7317051997
  H        -0.9363046291       -2.9557701756       11.8254016043
  H        -0.9159888228       -3.4080375225       14.3255628454
  H         1.0079850732       -2.5145391956       15.6668694467
  C         3.2307350350       -1.4471020135       10.4331317995
  C         3.6769142772       -2.7683360371       10.1528456432
  C         3.5878091716       -3.2702333436        8.8631821854
  C         2.9401308664       -2.5405377755        7.8596189656
  C         2.3425129983       -1.3123345652        8.1787199495
  C         2.5068382279       -0.7446127070        9.4448741877
  H         2.1186605893        0.2850078222        9.6845318077
  H         1.8265917102       -0.7348867181        7.4262059452
  H         2.9393799394       -2.7984412712        6.8230674502
  H         4.0442948614       -4.1731095630        8.6496341007
  H         4.1391148407       -3.3815187062       10.9349766829
  C        11.1597490402       -0.4041573218       14.0256050762
  C        12.1507292237        0.2086238765       14.7767539964
  C        13.3014928595        0.7073077334       14.0568452234
  C        14.3688363027        1.2839711205       14.7722976818
  C        15.3992272262        1.8359895017       14.2102230233
  C        12.1066276227        0.5870067124       16.2016026021
  C        11.4009692758        1.6671794195       16.6712379384
  C        11.4446515750        2.1409864206       18.0064971379
  C        12.2983687478        1.5232331288       18.8821165672
  C        13.1009751653        0.4731399260       18.4375201661
  C        12.8955800497       -0.0653215108       17.1720682271
  H        14.4028575405        1.1570840251       15.8547255425
  H        16.1753083525        2.3004517725       14.8317947318
  H        10.6076303871        2.1130290512       16.0713645475
  H        10.7256981138        2.8614582369       18.3320725228
  H        12.3015265507        1.7946068389       19.9218826034
  H        13.6882141553       -0.0056844026       19.2289701017
  H        13.5506979721       -0.8463042566       16.7818645196
  C        11.2234372374       -0.3838430266       12.5512355753
  C        10.1990003718       -1.1210484307       11.8448734168
  C         9.0440794428       -1.5975136344       12.4688594841
  C         9.0408174988       -1.7025679458       13.9435152008
  C        10.1025586534       -1.1018686331       14.6810305958
  C        13.3456831987        0.8361180967       12.5905207623
  C        12.2874818162        0.3054257141       11.8602403591
  C        12.3037029753        0.6811457456       10.3666845912
  C        11.6234501963        1.8473373259        9.9233076769
  C        11.5992104290        2.2644262733        8.5914489412
  C        12.4227072672        1.6032276083        7.6539628854
  C        13.1451178880        0.4639224076        8.1011462777
  C        13.1342105832        0.0049366180        9.4457959438
  H        13.5375426473       -0.9389785492        9.7117476360
  H        13.8503740133       -0.0567347542        7.4340975766
  H        12.4143880273        1.8673816222        6.6629892065
  H        10.9505470331        3.0950191805        8.3037277135
  H        11.0937520841        2.4884828043       10.7027973296
  C        14.4938452549        1.5572565614       12.0235655806
  C        15.4686461094        1.9880217540       12.8363387818
  H        16.2484312914        2.5709882311       12.4129344861
  H        14.5113687526        1.7407857363       10.9749828796
  C        10.1400116605       -1.3793645013       16.2098156370
  C        10.8518536138       -2.4190879812       16.8171715173
  C        10.6733357469       -2.7948414749       18.2052967423
  C         9.7259111546       -2.1577866097       18.9979770776
  C         8.9908748647       -1.0507091187       18.4199119126
  C         9.2352235521       -0.7055322189       17.0847041560
  H         8.7454009236        0.1377293754       16.6082056346
  H         8.2710218557       -0.5190298622       19.0197804474
  H         9.4645605168       -2.4937026143       19.9904748262
  H        11.3317142932       -3.6277346589       18.6080544419
  H        11.5292025287       -3.0344017604       16.2106632356
  C         7.9432306236       -2.3392361149       14.5909514743
  C         6.8596427196       -2.7929907108       13.8531821464
  C         6.8779695316       -2.7112664146       12.4619390404
  C         7.9088873610       -2.2185250748       11.7553428564
  H         7.9436332464       -2.2829701562       10.6507223737
  H         6.0717764579       -3.1825923004       11.8687190021
  H         6.0246016072       -3.2912549636       14.4100514860
  H         8.0049838273       -2.4884768074       15.6648150549
  C        10.4265756412       -1.4103276244       10.3918701594
  C        11.3375324879       -2.4725918930       10.1579683711
  C        11.5982332880       -2.8822029621        8.8704724110
  C        10.8246947450       -2.3758277923        7.8205633300
  C         9.8793487961       -1.3671126968        8.0697375130
  C         9.7559717178       -0.8093737424        9.3174069810
  H         9.0399544829       -0.0030168093        9.4666429944
  H         9.2355200218       -0.9107812515        7.3202371941
  H        10.9147556770       -2.6941085731        6.7721462108
  H        12.3024330803       -3.6587246746        8.6611512231
  H        11.8307474079       -2.9118175859       11.0625918360
