140

  C         4.5577939267       -0.1531474446       15.8853828190
  C         5.6210446929        0.5196028112       16.5534436670
  C         6.6406168306        1.1548102974       15.8720985104
  C         7.7859823607        1.7642275853       16.5674244022
  C         8.7558274436        2.3275245293       15.8857721948
  C         5.5729230503        0.7899246886       18.0251500462
  C         5.0551718434        2.0352043872       18.4811633623
  C         5.0310027500        2.4062250515       19.8518955815
  C         5.6661998067        1.5561759379       20.8162635769
  C         6.1778808393        0.3734743095       20.3459491980
  C         6.1410071600       -0.0414283807       18.9896785942
  H         7.7331819286        1.7904314555       17.6135289320
  H         9.6083184668        2.7829057852       16.3124012539
  H         4.5793123686        2.7450083823       17.7969670510
  H         4.6253815662        3.3288241857       20.2232929409
  H         5.6403641063        1.7690530578       21.8886173258
  H         6.6420406547       -0.3455989124       21.0030431581
  H         6.6418949108       -0.9552928885       18.7353180677
  C         4.5549758456       -0.1289647014       14.3793454598
  C         3.5712691579       -0.9476993696       13.7499221981
  C         2.3740058529       -1.2856612333       14.4422424955
  C         2.3061984943       -1.2615513655       15.8775898921
  C         3.5052209725       -0.8735177881       16.5592747633
  C         6.5993224826        1.1859296031       14.3642124954
  C         5.5159630963        0.6260971498       13.6591848905
  C         5.4641148074        0.9289164414       12.1874873798
  C         4.7389541626        2.0320439067       11.7467449879
  C         4.7407689115        2.5850315940       10.4532836407
  C         5.5659392232        1.9409912685        9.4794522050
  C         6.3830522331        0.8665534096        9.8768643266
  C         6.3295482756        0.3754503595       11.2074013010
  H         6.8681028153       -0.5211781863       11.4218741190
  H         6.9747114646        0.5135856992        9.0633214840
  H         5.6124389246        2.2267036038        8.4063878465
  H         4.2179068317        3.5643036104       10.3556515035
  H         4.1125982951        2.5369615072       12.4342196412
  C         7.6501652957        1.9312187065       13.7474766632
  C         8.6127655523        2.5226455037       14.4860627028
  H         9.3520103758        3.1951380969       14.0867950353
  H         7.5605623526        2.2180782047       12.6890517834
  C         3.5145008096       -1.2375841833       18.0033048370
  C         4.1293648248       -2.4066106672       18.5065550586
  C         3.9476211915       -2.8493841927       19.8495303801
  C         3.0604598668       -2.1200463124       20.6851087705
  C         2.3790320238       -1.0215703506       20.2012479399
  C         2.6369193177       -0.6179177683       18.8670479672
  H         2.1234723764        0.2642990384       18.5778986717
  H         1.5444594231       -0.5580284856       20.6830737412
  H         2.9167506510       -2.4795129685       21.7070734958
  H         4.4373475535       -3.7221767965       20.2314006733
  H         4.7287079508       -2.9109861992       17.7501561790
  C         1.2095432209       -1.9708953291       16.5471062121
  C         0.1746370773       -2.4998617283       15.8291878131
  C         0.2103439568       -2.5020189276       14.4040235877
  C         1.2882311356       -1.9202542746       13.7651288927
  H         1.3676283276       -2.0016493063       12.6828327719
  H        -0.4817724567       -2.9787549868       13.7521777166
  H        -0.5916002947       -3.0793063609       16.3395540273
  H         1.2467701848       -2.2410396722       17.6177505497
  C         3.7282619971       -1.3037630216       12.3541569421
  C         4.5508863687       -2.2896070282       11.8000919465
  C         4.4582342507       -2.5831121207       10.4528898196
  C         3.6365656341       -1.8704432788        9.5741669399
  C         2.8737527775       -0.8562448942       10.1072871127
  C         2.8743880072       -0.6177821803       11.4759504639
  H         2.1714011261        0.1310548527       11.7643968420
  H         2.2599379914       -0.1890673145        9.5258953653
  H         3.6585479169       -2.1137566275        8.5224881168
  H         4.9906608838       -3.4376778460       10.0068614677
  H         5.3249861345       -2.8444672859       12.3817758764
  C        11.6412117906        0.0920076912       15.9363836298
  C        12.6610561098        0.8051093760       16.5280761607
  C        13.7076204133        1.3386175005       15.7354418851
  C        14.8242167537        2.0150925170       16.3624849569
  C        15.7948293646        2.7206556379       15.6812913671
  C        12.5907356501        1.1196993510       18.0333336331
  C        11.5332571319        1.9203088762       18.5405202509
  C        11.4212733405        2.3150771897       19.8698069352
  C        12.4624714407        1.9838903890       20.7757625064
  C        13.5158170259        1.1212112139       20.3225361058
  C        13.6077243964        0.7268952008       18.9671849576
  H        14.8363634919        2.1266405688       17.4457570864
  H        16.5925942581        3.1539912948       16.3330965815
  H        10.8552055303        2.4374773502       17.8810917091
  H        10.6431255843        3.1246797342       20.0121096565
  H        12.2702633265        2.2086481976       21.7946202092
  H        14.2546951809        0.8473949913       21.0991579003
  H        14.3829366761       -0.0240763943       18.6568712527
  C        11.5265355744        0.0523928380       14.4680332057
  C        10.5625971357       -0.6814011755       13.8152809309
  C         9.5382733254       -1.2841950409       14.5862986169
  C         9.5635588744       -1.3049124801       16.0541188811
  C        10.5984752766       -0.6192273676       16.7150102253
  C        13.6496683523        1.2894415006       14.2991516774
  C        12.5486645507        0.7070880813       13.6657720230
  C        12.4289608210        1.1159265437       12.2462274096
  C        11.4582823856        2.0452183090       11.9682157323
  C        11.2768597043        2.5012001523       10.6292113291
  C        12.0873167813        2.0060077294        9.5622592012
  C        13.1451364854        1.1470800476        9.9155679376
  C        13.2478940771        0.6329874568       11.2234153129
  H        13.9625771135       -0.1843181495       11.4019803428
  H        13.8343256791        0.8878608018        9.1041359021
  H        11.8609855842        2.2621823014        8.5465622504
  H        10.4705213774        3.1491268055       10.3396715821
  H        10.8730089849        2.4169049373       12.8078248284
  C        14.6936018347        1.9897006769       13.5798303697
  C        15.7701700996        2.7081569791       14.2189380409
  H        16.5460977847        3.3197363469       13.7185401321
  H        14.6259322285        2.0981081102       12.4555404606
  C        10.7082866805       -0.8877413226       18.2323359074
  C        11.7143489205       -1.7769434654       18.7615197888
  C        11.5859329819       -2.3219285152       20.0589563049
  C        10.4036637977       -2.0472339957       20.7503278355
  C         9.5559963318       -1.0098009701       20.3236740643
  C         9.6811092773       -0.4750980954       19.0571113992
  H         8.8630863240        0.1222097488       18.6027628918
  H         8.6262320904       -0.8225784673       20.8457722058
  H        10.2208714603       -2.5039440077       21.7003249319
  H        12.3751310247       -2.9060675022       20.4510346884
  H        12.6089118162       -2.0001570050       18.1735467688
  C         8.6095487778       -2.1220442931       16.7641360977
  C         7.6069680472       -2.8505177850       16.1727211358
  C         7.5240514966       -2.7643485471       14.8122564239
  C         8.4073218920       -2.0073356533       13.9834678385
  H         8.3382009562       -2.1039258448       12.8959436769
  H         6.7028743368       -3.2439875923       14.3161584068
  H         6.9736130181       -3.3748657210       16.8249492289
  H         8.9315529118       -2.2715151620       17.7855552259
  C        10.6185031653       -1.0107014626       12.3583425560
  C        11.2965292737       -2.1273263123       11.8284219186
  C        11.0555242017       -2.6805103429       10.5524945938
  C        10.0335470817       -2.1589884574        9.7982108433
  C         9.4090347855       -0.9935832492       10.1996535575
  C         9.6070517765       -0.5334118468       11.5112177530
  H         8.9873755430        0.2648698762       11.8582377138
  H         8.7335033408       -0.4745089288        9.5616352477
  H         9.8749551087       -2.6831861555        8.8569529176
  H        11.6501014843       -3.5625543262       10.3122151349
  H        11.8103565895       -2.8184194005       12.5174669605
