140

  C        10.6781178146        7.1045339164        1.1606368250
  C         9.7498966786        7.8879737795        1.9074672137
  C         8.6472544596        8.5183302764        1.2300869123
  C         7.5777934978        9.2101007397        1.9270284601
  C         6.5085097188        9.8129034586        1.2654077283
  C         9.9441921344        8.4382024383        3.2738102039
  C        10.7441372823        9.5320313337        3.5418002507
  C        10.8700377651       10.0523380094        4.8783568861
  C        10.1326428187        9.4678792349        5.8675268871
  C         9.1944226045        8.4092599632        5.6089850385
  C         9.0987267420        7.9161094507        4.2560850458
  H         7.6103055377        9.1596685230        2.9624613426
  H         5.7355551456       10.2814911469        1.8612812077
  H        11.2314575037       10.0566493438        2.7443579934
  H        11.6436439335       10.8007383306        5.1128148554
  H        10.3693428320        9.7328292803        6.8102844883
  H         8.6720982874        7.8879911665        6.4358197005
  H         8.3583609045        7.1086477394        3.9909096968
  C        10.5771941436        7.0622031903       -0.3575811815
  C        11.5626650403        6.2175478493       -1.0132853652
  C        12.7303614431        5.7332409091       -0.3161064717
  C        12.7755230095        5.7691131962        1.0948337750
  C        11.6452754037        6.2705506839        1.7552263667
  C         8.5213752230        8.4571794887       -0.2682818609
  C         9.5395168109        7.8331678055       -0.9985828067
  C         9.6704336860        8.0934137377       -2.4936732796
  C        10.3337715028        9.3091641418       -2.8095400080
  C        10.3597640978        9.7989659033       -4.1789098021
  C         9.8810831572        8.9777042130       -5.2916567014
  C         9.0563427619        7.9047297582       -4.9406327299
  C         8.9021235740        7.4851024119       -3.5525744714
  H         8.1659685535        6.7320015408       -3.2738864840
  H         8.4351558325        7.3986261593       -5.6177842206
  H        10.0905068190        9.2633712859       -6.3282719824
  H        10.6425100173       10.8593186523       -4.3295738319
  H        10.7432471754        9.8897185814       -1.9711290017
  C         7.4887135685        9.2040399036       -0.8909836383
  C         6.5350329372        9.8635743629       -0.1684691622
  H         5.7783038636       10.5136976447       -0.6891092511
  H         7.3287155104        8.9841733249       -1.9836329240
  C        11.5614155737        5.9359166551        3.2738251504
  C        10.6958810881        4.8901674273        3.6933964744
  C        10.7631934706        4.6081498073        5.0372941174
  C        11.6422137698        5.2544358119        5.9313407316
  C        12.5319073483        6.2592296057        5.4957366204
  C        12.4699171730        6.6614545753        4.1337700553
  H        12.9766308842        7.5273851814        3.6659622216
  H        13.1215969846        6.8117390280        6.2144589680
  H        11.7299735461        5.0025921897        6.9809965993
  H        10.0335766570        3.9007228217        5.5073161197
  H         9.9178223489        4.4508502496        3.0254135258
  C        13.8309419658        5.0897543795        1.7516758477
  C        14.9068506491        4.6126028664        1.1075712348
  C        14.9740463248        4.6517272561       -0.3195480837
  C        13.8854300674        5.2367920291       -1.0048201882
  H        13.8548764275        5.2514134243       -2.0505516365
  H        15.7856245425        4.2906574161       -0.9779112787
  H        15.6785916053        4.0449151006        1.6824149564
  H        13.8153462422        4.9969584662        2.8010372609
  C        11.5110700462        5.8935655612       -2.5261558785
  C        10.6273667202        4.8987161870       -2.9512506233
  C        10.5873029120        4.4955572348       -4.3277184562
  C        11.5136239610        5.0827956707       -5.1955856047
  C        12.3918287396        6.1292689322       -4.7404929376
  C        12.4335587204        6.5322548464       -3.4428938847
  H        13.0307680137        7.2629813519       -3.0170400137
  H        13.1127764815        6.5246084224       -5.5103641421
  H        11.5227604598        4.6742316201       -6.1899774920
  H         9.9504307009        3.6297908166       -4.7006759624
  H         9.9521233403        4.3687289215       -2.2631454308
  C        17.8218539688        7.2423912379        0.9299368503
  C        16.7452143938        7.9353387766        1.6040413139
  C        15.6219915435        8.4783537968        0.8404991885
  C        14.4789694765        9.0586297751        1.4583877960
  C        13.3882191323        9.4540257024        0.7503540486
  C        16.8749964676        8.2942519578        3.0746721415
  C        17.7192948852        9.3860152889        3.3519596183
  C        17.8857033910        9.9258170098        4.6095658886
  C        17.1292759512        9.4662355353        5.6647740527
  C        16.2808915367        8.3870952788        5.4297482212
  C        16.1207972320        7.8655265004        4.1352562509
  H        14.4578660740        9.0949993207        2.5628358190
  H        12.5465655608        9.9719906014        1.2333342282
  H        18.1968275145        9.8718389888        2.4973822100
  H        18.4787369519       10.8635023510        4.6422860149
  H        16.9737162553        9.9837069276        6.5954432843
  H        15.5696966030        8.1251537626        6.2378491614
  H        15.3815107107        7.0744244725        3.9947334938
  C        17.9225034746        7.3438271569       -0.5298796820
  C        18.8917813248        6.5320623062       -1.1590584997
  C        20.0197175236        6.0407458583       -0.5196725408
  C        19.9885764082        5.9640056691        0.9722684239
  C        18.8640323871        6.5416495491        1.6214909114
  C        15.6980066300        8.4717540367       -0.6444850447
  C        16.9360137403        8.0373891632       -1.2534588425
  C        16.9457883757        8.1022074152       -2.7232735967
  C        17.6732300675        9.1692555004       -3.2852206320
  C        17.4273452981        9.4269429465       -4.6483395431
  C        16.5079345782        8.7459929614       -5.4055704608
  C        15.7689428841        7.6782060060       -4.8089802270
  C        16.0020530411        7.4264004602       -3.4462650408
  H        15.4003220760        6.7283354377       -2.8197187116
  H        14.9180216812        7.1622570910       -5.2843294208
  H        16.3454282888        9.0765589456       -6.4424013236
  H        17.9863514322       10.1979232229       -5.1593632455
  H        18.3771440504        9.8300103242       -2.8129423490
  C        14.5811006357        9.1116557907       -1.3745555077
  C        13.4052821624        9.4102160517       -0.7137974600
  H        12.5517160998        9.8064596592       -1.2487698352
  H        14.7020459576        9.3301010977       -2.4564949310
  C        18.7928543543        6.1953877221        3.1510033800
  C        17.9247509693        5.1713308581        3.5735777557
  C        17.8044341147        4.8991140739        4.9317873957
  C        18.5403794859        5.6992514612        5.7768951027
  C        19.4868652014        6.6144926863        5.4058326809
  C        19.5975643900        6.9053873465        4.0555782773
  H        20.2258577100        7.6985139869        3.7044303514
  H        20.0521653372        7.1598238565        6.1744728754
  H        18.3443833069        5.7176794385        6.8766642715
  H        17.0612652341        4.2271515572        5.3442937201
  H        17.2091423447        4.6886801793        2.8864579909
  C        21.0822027486        5.3555857424        1.6829239955
  C        22.0953274948        4.7917740682        0.9485958801
  C        22.0661344347        4.7833575383       -0.4836717969
  C        21.0539081362        5.3469089559       -1.1724272183
  H        21.1010330786        5.3279807158       -2.2768290849
  H        22.8379034904        4.1567804583       -0.9026505010
  H        22.9423367814        4.3358076916        1.4128220411
  H        21.1126185880        5.4383902096        2.7773790581
  C        18.7981747414        6.2372258887       -2.7337771853
  C        17.9408244127        5.2293407243       -3.2170987487
  C        18.1591020726        4.7678919309       -4.5346892436
  C        19.0123617728        5.4438247084       -5.4137745123
  C        19.6753028597        6.5402635833       -4.9322459973
  C        19.6660419718        6.8983997622       -3.6022330078
  H        20.3105019168        7.7351137745       -3.2642859979
  H        20.3231455755        7.1432628248       -5.5915052088
  H        18.9716518061        5.2579974409       -6.4967518935
  H        17.5796441758        3.9174641989       -4.9078392758
  H        17.3303802613        4.6217674692       -2.5314271933
