140

  C         2.7268792433        0.3439574532       14.8073629086
  C         3.7986299460        0.9742475768       15.4427761781
  C         4.8529886901        1.5472092827       14.7488573272
  C         5.8988174439        2.2042949196       15.4205776675
  C         6.9145827759        2.8834215032       14.7202960793
  C         3.6822907649        1.3246048851       16.9562863461
  C         2.8022735643        2.4444679635       17.2165255456
  C         2.7385800612        3.0957507010       18.4366874348
  C         3.5093926314        2.5654787476       19.4662782718
  C         4.2709984079        1.4242827866       19.2845211580
  C         4.3669669254        0.7640244333       18.0411306229
  H         5.9214100077        2.1131249056       16.4914183227
  H         7.7661953262        3.3915862756       15.1997372394
  H         2.1827485917        2.8745879981       16.4296213111
  H         2.0498882807        3.9002468491       18.4970724332
  H         3.4888374626        2.9342200556       20.5368790038
  H         4.9106763007        1.1288718714       20.1180462449
  H         5.1729331619        0.0383030439       17.8702072346
  C         2.6397670476        0.3164178197       13.3348559851
  C         1.5428350357       -0.2163316990       12.6170085338
  C         0.4488448229       -0.7736547795       13.3720414363
  C         0.5792568120       -0.8026383675       14.8245110017
  C         1.7099428384       -0.2665910949       15.5675478410
  C         4.7891189717        1.5712270578       13.2774830059
  C         3.6915977884        1.0603166299       12.6122797315
  C         3.6360822130        1.2996718404       11.1753269653
  C         3.0616643137        2.4902785818       10.6449489413
  C         3.4025040619        2.9467797860        9.3284264483
  C         4.1601633501        2.1293348059        8.5264032527
  C         4.5345944128        0.8865788766        8.9577053459
  C         4.3636494835        0.5069314426       10.2936178474
  H         4.9423952695       -0.3325012124       10.6518451668
  H         5.0255170462        0.3071721466        8.2195214942
  H         4.4050678599        2.4406045022        7.4823336180
  H         3.0531503127        3.9167688908        8.9358920514
  H         2.4453438813        3.1059103795       11.3321746553
  C         5.7886874617        2.3764278270       12.6001751966
  C         6.8544563024        2.8934223459       13.2594242165
  H         7.5911363298        3.5140162952       12.8033875466
  H         5.8022742741        2.5437250264       11.5304530349
  C         1.7881491706       -0.7330051346       17.0266052848
  C         2.4474483920       -1.8864745640       17.3932350715
  C         2.4328845420       -2.3660729402       18.7213505807
  C         1.5766131649       -1.7096584264       19.6298886822
  C         0.8730545962       -0.5437993845       19.2504919219
  C         0.9598748406       -0.0472972694       17.9663476687
  H         0.5081716752        0.9224979532       17.6499489359
  H         0.2530665896       -0.1274378574       20.0268556148
  H         1.6721832371       -1.9094373347       20.6534433130
  H         3.1436695871       -3.2356114596       18.8870526505
  H         3.0116927750       -2.3764498986       16.5776575338
  C        -0.3956550195       -1.6274888835       15.4794251988
  C        -1.5193389874       -2.1794992284       14.8450981009
  C        -1.6757969999       -2.0287971125       13.4133638443
  C        -0.6408047217       -1.4099137989       12.7432437896
  H        -0.7242331899       -1.3367959126       11.6676819316
  H        -2.6008836639       -2.4379667020       12.9357991739
  H        -2.3164494912       -2.7356599083       15.4003837703
  H        -0.3694200942       -1.6612630144       16.5739280987
  C         1.5372228549       -0.4558089670       11.0782901611
  C         2.0276122472       -1.7222464593       10.5929257607
  C         2.0266514142       -2.0068640157        9.2311516384
  C         1.4185563357       -1.1221462668        8.3374195797
  C         0.6981012176       -0.0612978583        8.7860805825
  C         0.7722787625        0.2924581062       10.1441332495
  H         0.2820579701        1.2354690484       10.3407724056
  H         0.0105860712        0.5701728443        8.1977711971
  H         1.6401728366       -1.3687232727        7.2584454361
  H         2.5091887144       -2.9523335427        8.8761062013
  H         2.5446392587       -2.3568644662       11.2911675375
  C         9.7424061033        0.4019682424       14.7296471581
  C        10.7191043485        1.1060752329       15.4305414991
  C        11.8225527372        1.6176142045       14.7458391168
  C        13.0101251168        2.0739674247       15.4148099385
  C        13.9850650711        2.7232433093       14.6722311723
  C        10.7077860873        1.4346422185       16.8803130359
  C         9.8263350719        2.3375458430       17.4588986337
  C         9.8911538372        2.9031743393       18.7447568999
  C        10.7157824081        2.3314073154       19.6617427046
  C        11.5283256544        1.2857078234       19.2494593026
  C        11.6136503680        0.9299351566       17.9113767655
  H        13.1548896203        2.0130401128       16.4901663570
  H        14.8690439545        3.0020761310       15.1565969556
  H         9.1279340041        2.7713192765       16.7696631603
  H         9.2632303062        3.7447335513       18.8939745701
  H        10.7738594539        2.6431131034       20.6704986976
  H        12.0208217829        0.7803288694       20.0793234622
  H        12.3576622392        0.2525003196       17.5644484496
  C         9.7932760532        0.3513169779       13.2227098542
  C         8.8489733026       -0.4205949530       12.4841506512
  C         7.6534348150       -0.9554815011       13.1734499958
  C         7.5635800912       -0.8473217493       14.6286998778
  C         8.6254934236       -0.3648521268       15.3846440229
  C        11.8556175106        1.6628089786       13.3349254233
  C        10.8048587998        1.0976343847       12.5725580531
  C        10.7421202191        1.5054504154       11.1678098101
  C         9.8841833485        2.5133102762       10.8245999427
  C         9.8944908448        3.0992363654        9.5429846240
  C        10.7763246705        2.5665399895        8.5749186364
  C        11.5869415340        1.4877903124        8.9200109934
  C        11.5496374743        0.9056581890       10.1763593084
  H        12.1815721770        0.0280194621       10.5147175592
  H        12.1459514843        1.0994324719        8.0320000153
  H        10.8589916295        3.1623406832        7.6480845506
  H         9.3072865540        3.9978074851        9.3968383394
  H         9.2348026984        2.9240688556       11.6089107425
  C        12.8988400652        2.3167800133       12.6272278408
  C        13.9848014208        2.8803607457       13.2706981720
  H        14.8981358001        3.2299795132       12.8496740563
  H        12.7935037442        2.4816136149       11.5711863529
  C         8.7259339177       -0.6779548015       16.8534509093
  C         9.3931003544       -1.8467026728       17.1779483204
  C         9.5611800535       -2.1843910868       18.5634094414
  C         8.9672149350       -1.4562561410       19.5656038267
  C         8.1352387784       -0.4184380715       19.1771003112
  C         8.0125444938        0.0047844765       17.8587275642
  H         7.3333312076        0.8358067780       17.6003657984
  H         7.5739632687        0.0406040492       19.9528875538
  H         9.0027218562       -1.7239880787       20.6248696933
  H        10.2063125226       -3.0870189740       18.8861754935
  H         9.7275917243       -2.4464317502       16.3084358201
  C         6.4269747315       -1.5645886183       15.2227458373
  C         5.4331713915       -2.1789770939       14.4794840452
  C         5.4331186611       -2.0902799659       13.0928386266
  C         6.5357254770       -1.5682929157       12.4438094005
  H         6.5781072886       -1.4756160834       11.3660231711
  H         4.5897194686       -2.5580141272       12.4674844088
  H         4.6471200990       -2.7464043410       14.9696400079
  H         6.2752670363       -1.4573084466       16.2860183199
  C         8.9912544241       -0.7581708772       11.0324232287
  C         9.8932454965       -1.7994319221       10.5356336976
  C        10.1209688529       -1.9522100248        9.1732620483
  C         9.3006417566       -1.3064990956        8.2087116578
  C         8.2511713896       -0.4961353008        8.6662151432
  C         8.1807088060       -0.1591986233       10.0191837146
  H         7.4456732781        0.6496482091       10.3347493980
  H         7.5032125256       -0.1279375370        7.9213046446
  H         9.3356986428       -1.5419025623        7.1493395072
  H        10.8784026745       -2.6568575222        8.8140565354
  H        10.4100403836       -2.4497370640       11.2518181485
