140

  C        11.0556244807        7.2030528251        1.1597956053
  C        10.0440610835        8.0386409595        1.8351589961
  C         8.9766721642        8.6510148366        1.0685354170
  C         7.8118836489        9.1981990433        1.7072923698
  C         6.7927841597        9.6674320404        0.9166129173
  C        10.0113429042        8.3941730609        3.2669064351
  C        10.8818025262        9.3103397011        3.8983112599
  C        10.7959068292        9.8089426175        5.2025992420
  C         9.8022721244        9.1761001575        6.0003363192
  C         9.0766308175        8.0867005084        5.4882655606
  C         9.0827310924        7.7649399071        4.1211646113
  H         7.7505957765        9.3339257719        2.7382708375
  H         5.9682505388       10.0806077722        1.4700344998
  H        11.7809820773        9.6890840087        3.3408693864
  H        11.3512812614       10.5759974963        5.6675612882
  H         9.8270418755        9.3809198797        7.1221612884
  H         8.4464681424        7.5346666703        6.2812630250
  H         8.5069147586        6.8902126029        3.8083685561
  C        11.0739151647        7.2743843899       -0.3569109092
  C        12.1686240757        6.5089963669       -1.0012623499
  C        13.1566468151        5.8548085283       -0.2278746030
  C        13.1071884748        5.8888227813        1.2212040304
  C        11.9752451830        6.4500478453        1.8844005566
  C         9.0406739366        8.6968310869       -0.3714130765
  C        10.1310432094        8.0897616552       -1.0817285970
  C        10.1814244754        8.4133177424       -2.5135769834
  C        10.7641843462        9.5811395395       -2.8781367092
  C        10.5642752411       10.0271584898       -4.2057687741
  C         9.7446072809        9.3353152412       -5.0921858710
  C         9.1868518687        8.0877710960       -4.7014881731
  C         9.3366291072        7.6672290922       -3.3954011912
  H         8.7174985295        6.8490143593       -3.0143904159
  H         8.4691804763        7.6196642902       -5.3770215961
  H         9.6325052224        9.6987158676       -6.0692178071
  H        11.1141685031       10.8581992997       -4.5761159288
  H        11.3770338777       10.0681412649       -2.1138335356
  C         7.9138096333        9.1693950588       -1.0891488229
  C         6.7760634005        9.6071533394       -0.4589182511
  H         5.9150730332       10.0099742981       -1.0135570375
  H         7.9604836731        9.0862301168       -2.1530039754
  C        11.9447442490        6.2619275382        3.4211453248
  C        11.2103009506        5.1815376318        3.9676350868
  C        11.2152921200        4.8626246185        5.3279446780
  C        11.8570072952        5.6948920302        6.2025197134
  C        12.6461436113        6.8358858766        5.7036358355
  C        12.7321009071        6.9957754073        4.3445038121
  H        13.3130222845        7.8719229325        4.0083865633
  H        13.1014928323        7.4881946943        6.4658462323
  H        11.7561363352        5.4887778334        7.2662665232
  H        10.5078987017        4.1161009588        5.6203452172
  H        10.8334824083        4.4044830779        3.2935197859
  C        14.1590411152        5.2789440868        1.9906124013
  C        15.3079013901        4.7478524379        1.3537440563
  C        15.3900939820        4.7997250840       -0.0648538819
  C        14.3339586193        5.3172447668       -0.8442854680
  H        14.5029914236        5.1120016183       -1.9076839609
  H        16.2471485393        4.4004578370       -0.5952068104
  H        16.0776889813        4.2125640479        1.9360373175
  H        13.9890870221        5.3926628137        3.0352832845
  C        12.1886619096        6.1203840675       -2.4997687924
  C        11.1521304217        5.2884668763       -2.9941900365
  C        11.1039592347        4.8948005791       -4.3300768948
  C        12.0788551635        5.4614416599       -5.1830217163
  C        13.0730862097        6.3047603552       -4.6985943396
  C        13.1918768563        6.6374168460       -3.3913295068
  H        13.9147637174        7.3366142602       -3.0485844902
  H        13.7151230466        6.7125260054       -5.4448418798
  H        12.0843097877        5.3033278974       -6.2835682436
  H        10.3420401658        4.2096131069       -4.7498258624
  H        10.4767369669        4.8346694768       -2.2884717612
  C        18.1776142142        7.4433295197        1.5301170773
  C        17.0822524323        8.0898332550        2.2607073279
  C        15.9605039884        8.5094578704        1.5225677713
  C        14.7672380362        9.0554926122        2.1629070927
  C        13.7257229272        9.6289383431        1.4465833289
  C        17.0745964614        8.4441403783        3.7074926182
  C        17.8248565788        9.4620418750        4.2091751151
  C        17.7002686744        9.8342603075        5.5602028136
  C        16.8543050756        9.0388452859        6.3960401836
  C        16.1762056443        7.9296552371        5.8829499997
  C        16.2623164069        7.6964001120        4.5638130415
  H        14.7480583088        9.3005071214        3.2432337024
  H        12.8787229418       10.1003879204        1.8786664162
  H        18.4447079049       10.0629485627        3.4829052775
  H        18.2446149067       10.6318698232        6.0512387683
  H        16.7048293097        9.2622345409        7.4291610815
  H        15.4636898981        7.4031940207        6.5062635969
  H        15.8091006960        6.7924263654        4.1668164095
  C        18.1700737758        7.3837468390        0.0953331796
  C        19.1420645720        6.5463831279       -0.5854898232
  C        20.2561677833        5.9670878307        0.2396134469
  C        20.2265331932        6.0676207298        1.6531178958
  C        19.1192995506        6.6585364199        2.2884341825
  C        16.0272203943        8.5476700992        0.0963523883
  C        17.1515400973        8.0514104733       -0.6377116861
  C        17.2110633961        8.5320704600       -2.0785949452
  C        18.0066346174        9.6253485712       -2.4071101843
  C        18.0094014489       10.0621429634       -3.7201385480
  C        17.3522356702        9.3779410832       -4.7492922797
  C        16.5981068880        8.2362329039       -4.4672453224
  C        16.5262095962        7.8515017303       -3.1026277667
  H        16.0332454862        6.9803096934       -2.8304085093
  H        16.1024569774        7.5999804620       -5.2337492472
  H        17.4737165089        9.7205450315       -5.7566388357
  H        18.5798866645       11.0011178776       -3.9496012238
  H        18.6859573586       10.0649398303       -1.6608354278
  C        14.9376373907        9.1576507424       -0.6514678107
  C        13.7807921940        9.6592309258       -0.0027530430
  H        13.0329117034       10.0793473730       -0.6265845758
  H        15.0518486245        9.2320035491       -1.7102947815
  C        18.9830703966        6.2751805413        3.7444736310
  C        18.2745483223        5.1312800215        4.0699872319
  C        18.0889047767        4.7245607526        5.4339240887
  C        18.7549959514        5.4828005176        6.4040669509
  C        19.6679291080        6.5090104702        6.0185205385
  C        19.7952884999        6.9114546037        4.6691256554
  H        20.3790508599        7.7504228886        4.3760566006
  H        20.1608571624        6.9685631616        6.8562440562
  H        18.6477224389        5.1970050018        7.4324857729
  H        17.5592591012        3.8454655017        5.7707381428
  H        17.8667933700        4.5678954039        3.2369990902
  C        21.3573572905        5.6242559924        2.3773608432
  C        22.5911666915        5.2795871944        1.8053765193
  C        22.5754180626        5.1601816882        0.3843808917
  C        21.4472242770        5.3836617536       -0.4109468010
  H        21.5418911449        5.3651492529       -1.5118940248
  H        23.4288908467        4.6524787137       -0.1609928926
  H        23.4691384658        4.9849695222        2.3673022261
  H        21.3630204784        5.7443309219        3.4457763468
  C        19.0942261273        6.1102667420       -2.0714351842
  C        18.4824994924        4.8485520209       -2.3998359129
  C        18.2148157865        4.4579258552       -3.7360527943
  C        18.8062540002        5.1525794243       -4.7716275487
  C        19.6795504125        6.2241595463       -4.5126707470
  C        19.7517511955        6.7207546286       -3.2259666927
  H        20.3657181611        7.6587622749       -3.0732683001
  H        20.1253602040        6.7433370982       -5.3881150088
  H        18.5045898000        4.8822666407       -5.7628217043
  H        17.6466356975        3.5904775447       -3.9486906763
  H        18.0714051614        4.2314240364       -1.6040546259
