140

  C         3.4767006471       -0.3986759559       13.9438601848
  C         4.4655864239        0.3238724784       14.7280995120
  C         5.5247482692        0.9591552175       14.0718471075
  C         6.4798973873        1.6901347205       14.7905006946
  C         7.5326313591        2.4199159445       14.1863498142
  C         4.4253556815        0.5544049823       16.2342884531
  C         3.6707734233        1.6185097770       16.7451525425
  C         3.7846573653        2.0595477830       18.0346486768
  C         4.6785079775        1.4818511881       18.9226840851
  C         5.4878807873        0.4376229876       18.4589111324
  C         5.3721158445       -0.0573042086       17.1296622617
  H         6.6219007436        1.5392012763       15.8435829138
  H         8.4858593303        2.7315229572       14.6702353196
  H         2.9378069694        2.1646481745       16.1549924352
  H         3.1830440545        2.9480056559       18.2889241941
  H         4.9905122256        1.8894961383       19.8938947508
  H         6.1258468364       -0.0830156116       19.1923695101
  H         6.0383829992       -0.8369860829       16.7607959067
  C         3.5215968646       -0.2440661998       12.4756351772
  C         2.5951092930       -0.9828455193       11.6294614900
  C         1.4550523995       -1.6295989981       12.2507171142
  C         1.3846176724       -1.5655200072       13.7204147473
  C         2.3134956951       -1.0229930746       14.5823818902
  C         5.4830654429        1.2220381012       12.6292489969
  C         4.4886935005        0.6221293417       11.8924557843
  C         4.3958598581        1.0117062312       10.4911277919
  C         3.4488358517        1.9221089538       10.0837051508
  C         3.2767449343        2.4289058433        8.7604061643
  C         4.3474294061        2.0285090592        7.8924627931
  C         5.3137839516        1.1171884785        8.2484241077
  C         5.2873748201        0.5863215904        9.5243998239
  H         6.0948093255       -0.0915215357        9.8098680911
  H         6.0925405479        0.7996904015        7.5761240964
  H         4.3341202432        2.4651013912        6.9072780558
  H         2.4406415517        3.1230363807        8.5164135935
  H         2.8009968147        2.0804892507       10.9452661094
  C         6.4830155154        2.0894035803       12.0642616231
  C         7.5042878629        2.6112132833       12.8019414598
  H         8.3912170403        3.0553935401       12.3121589393
  H         6.4433272255        2.1135994812       10.9701740080
  C         2.4193032763       -1.5008259545       16.0174281761
  C         3.4028970065       -2.4650746628       16.1451342682
  C         3.6432590245       -3.1941393352       17.3531413580
  C         2.8557627609       -2.9080434143       18.4836567949
  C         1.9248266447       -1.8177443377       18.4124063222
  C         1.6877408479       -1.2015538751       17.1790114959
  H         1.1062666298       -0.3105959565       17.1811041022
  H         1.4581187637       -1.4694939230       19.3431850414
  H         2.9765983968       -3.4601797666       19.3873263357
  H         4.3347514728       -4.0406698245       17.2894301097
  H         3.9737950804       -2.7315066666       15.2837780868
  C         0.1982564560       -2.1967090561       14.2942059847
  C        -0.8036655040       -2.7576697060       13.5361223271
  C        -0.5448090338       -2.8516281029       12.1260977032
  C         0.5086429193       -2.3326310438       11.4600412895
  H         0.7031675806       -2.4150916620       10.4319001103
  H        -1.2945458756       -3.4170374396       11.5528842329
  H        -1.6115337004       -3.3364560504       13.9512819029
  H         0.1410637556       -2.1661010448       15.3658424781
  C         2.7374613375       -1.3236109668       10.1543020800
  C         3.7066258640       -2.2721962422        9.6830592450
  C         3.8340651988       -2.5486597215        8.3082944904
  C         2.9772551964       -1.8821458734        7.4281316865
  C         2.0305438589       -0.9924472780        7.8355562578
  C         1.8847226683       -0.6922970051        9.2065377042
  H         1.3813386914        0.1783220667        9.5741898160
  H         1.4130092557       -0.6024670121        7.0432322271
  H         3.0088238533       -2.0978256109        6.3373511325
  H         4.5806908474       -3.2356849584        7.9944610270
  H         4.3392779683       -2.5819470694       10.5396164365
  C        11.0467976558       -0.1587777756       13.9683142634
  C        12.1133942059        0.5359039048       14.6414101188
  C        13.1967618520        1.0285483807       13.8891602879
  C        14.2504757386        1.7786834901       14.5494983622
  C        15.2392659439        2.4921748236       13.8904046367
  C        11.9640355785        1.0951700419       15.9846712409
  C        10.9960415582        2.1229394506       16.2980073758
  C        10.8360231122        2.5029043642       17.6498132469
  C        11.4632177082        1.7671615374       18.6738873815
  C        12.4054283148        0.7740954561       18.3729924262
  C        12.6716067723        0.4786942615       17.0241517953
  H        14.2028621945        1.8851152400       15.6027418951
  H        16.0234864216        2.9619966419       14.4270689456
  H        10.4837354847        2.6002799721       15.4747954863
  H        10.0922986430        3.2563607445       17.9962167039
  H        11.3335409618        2.2188232949       19.6529249050
  H        12.9378401971        0.2230193845       19.1449506112
  H        13.3384004132       -0.3405817878       16.8385442406
  C        10.9730638351       -0.0678949775       12.5517994798
  C         9.8830345276       -0.7492048520       11.9076039072
  C         8.7691703732       -1.2838034619       12.5691368294
  C         8.9347843476       -1.4211697573       13.9868572252
  C        10.0287648093       -0.9002591353       14.6718654406
  C        13.1321797078        1.1460927886       12.4286778243
  C        11.9358109073        0.6831865600       11.8331866007
  C        11.7511521486        1.1518214838       10.5189175178
  C        10.9570440694        2.2750546404       10.2239899083
  C        10.9246871645        2.8443813795        8.9692271722
  C        11.6963801283        2.3033749300        7.9195291462
  C        12.4394665301        1.1611464449        8.1547203981
  C        12.4380684424        0.5717217067        9.4186770744
  H        13.0516382175       -0.2896237290        9.6513529173
  H        13.0141005235        0.8329460889        7.2770417003
  H        11.7565874572        2.8120555640        6.9435518126
  H        10.1889479965        3.6203346845        8.8288282774
  H        10.4282874693        2.6823501067       11.0532302909
  C        14.1897090341        1.8453247578       11.7718731832
  C        15.1624508536        2.5396102293       12.4691147864
  H        15.8353806301        3.1182590628       11.8582215718
  H        14.2321139364        1.8044962325       10.6817951588
  C        10.0552783473       -1.2460878529       16.1519968125
  C        10.8066219379       -2.2582730970       16.7421752093
  C        10.6621740791       -2.6544979927       18.0697390149
  C         9.7709766244       -1.9770310101       18.9043744802
  C         9.0084379775       -0.9546220956       18.3284005061
  C         9.1414783848       -0.5735312189       16.9984192174
  H         8.4602413075        0.2029345517       16.6325732723
  H         8.2172556199       -0.5233078353       18.9084307361
  H         9.6350165610       -2.2987531573       19.9054664792
  H        11.2760995768       -3.5329063667       18.4023180074
  H        11.5032706153       -2.8421520565       16.1843721469
  C         7.8912618424       -2.1919109997       14.7274795552
  C         6.7299623837       -2.4681630142       14.0716439979
  C         6.5402657608       -2.2097491651       12.7375782519
  C         7.5540569243       -1.6641776042       11.9372271598
  H         7.4115035792       -1.5375773486       10.8412956103
  H         5.5826917896       -2.2384482926       12.2319106503
  H         5.9684593872       -3.0461539411       14.5562220881
  H         7.8719154687       -2.4802935976       15.7726279505
  C         9.9671858973       -1.0087663225       10.4827950856
  C        10.7940909887       -2.1064591671       10.1539572143
  C        10.7657525232       -2.5702284852        8.8386401692
  C        10.0313360738       -1.9183809178        7.8484294721
  C         9.2362843616       -0.8164413684        8.1562161735
  C         9.1750475202       -0.3733870142        9.5136370249
  H         8.5766623514        0.4555060290        9.9398329042
  H         8.6997582178       -0.3152745868        7.3286968096
  H        10.1663529891       -2.1866225867        6.7801152937
  H        11.4739113064       -3.3455572282        8.5620463868
  H        11.4932141309       -2.5822262411       10.8601290523
