140

  C         5.3486040909       -0.5466084428       16.0246697079
  C         6.2699853510        0.2633060510       16.7381463644
  C         7.2699786087        1.0853849296       16.0893802516
  C         8.3004656630        1.7759350589       16.7717454328
  C         9.2968702278        2.5214985396       16.1491382272
  C         6.1403498944        0.6813796268       18.1992311328
  C         5.4286626385        1.8428570630       18.5512024698
  C         5.4736255370        2.3880640361       19.9068536118
  C         6.1710909390        1.7045112689       20.8901402100
  C         6.9683225589        0.5964090860       20.4688531747
  C         6.9783867916        0.0928482481       19.1734886034
  H         8.3692308395        1.6000612633       17.8843485531
  H         9.9306782725        3.2531065401       16.6644733796
  H         4.8263456120        2.4127475258       17.8246238008
  H         4.8942615062        3.2383848922       20.2077827106
  H         6.1660901055        2.0022125751       21.9771945700
  H         7.5899234252        0.0500820210       21.2044290216
  H         7.4044085957       -0.7867752509       18.8270957854
  C         5.3840946401       -0.5434826968       14.5422666545
  C         4.3321328479       -1.1124957081       13.7858550000
  C         3.1735354757       -1.6222305663       14.3870472015
  C         3.0973226271       -1.6177079553       15.8417109614
  C         4.2288493147       -1.1912236052       16.6161200071
  C         7.2938907357        1.1318772344       14.6313420279
  C         6.3316650342        0.3188432583       13.9132627602
  C         6.2871062336        0.6199678960       12.4530468285
  C         5.4184929768        1.6257474079       11.9309189391
  C         5.5619505529        2.0626306776       10.5483613554
  C         6.4770201610        1.4757806604        9.6374939831
  C         7.3101463458        0.4026973988       10.1609927850
  C         7.1599077429        0.0353756137       11.5334646874
  H         7.7449239507       -0.8054518288       11.8936517309
  H         7.9217053331       -0.1820385833        9.5288818243
  H         6.5288252338        1.7339470319        8.5904612917
  H         4.8589676018        2.8372169854       10.2370797564
  H         4.6015555589        2.0808341201       12.5670325205
  C         8.3493233349        1.8858000360       13.9994248346
  C         9.2259824533        2.6203559687       14.7458462277
  H         9.8779262389        3.3095301046       14.2117296804
  H         8.4452211591        1.9323900243       12.9132948729
  C         4.1446709006       -1.4905325960       18.0341203764
  C         4.8672492400       -2.6116523592       18.5711594329
  C         4.7194739333       -2.9482205567       19.9384052902
  C         4.1561261599       -1.9974129901       20.8136423318
  C         3.4493055419       -0.8976522326       20.2995626398
  C         3.4783073356       -0.6547121799       18.9465177249
  H         3.1219942822        0.3006293430       18.6164282169
  H         2.9291144842       -0.2279464410       20.9321700952
  H         4.1736703976       -2.2252169636       21.8777708462
  H         5.0774074091       -3.8599832965       20.3939887555
  H         5.3847040156       -3.2859238616       17.8724948587
  C         1.8078944600       -2.0066369974       16.4467881371
  C         0.7299867772       -2.3458950991       15.6772752595
  C         0.7809453193       -2.4102925167       14.3004357898
  C         1.9949537959       -2.1105828770       13.6875125887
  H         2.0113693858       -2.2626409352       12.5826872005
  H        -0.1168577949       -2.7187967874       13.7116838020
  H        -0.1719880009       -2.5028049484       16.2468164365
  H         1.6708593139       -2.2286971680       17.5416459516
  C         4.3625341036       -1.4942532317       12.2519530757
  C         5.1196688042       -2.5448942833       11.7404512841
  C         5.0002824520       -2.9824337224       10.3966428464
  C         4.2651304332       -2.1876955159        9.4408668281
  C         3.4513656985       -1.1554164704        9.9614613819
  C         3.5680539406       -0.7790275436       11.2966014284
  H         3.0102586853        0.0538802292       11.6907360128
  H         2.9734623111       -0.4598078118        9.3222156792
  H         4.2086737460       -2.4877161839        8.4437825210
  H         5.7759311599       -3.7673116587       10.0576990634
  H         5.7922177080       -3.0264108743       12.4394473267
  C        12.1540754035       -0.0375802233       16.1076843336
  C        13.0060300540        0.8182685756       16.8648678756
  C        14.0951229576        1.3386462710       16.2033240484
  C        15.0635399993        2.1192131189       16.9509226806
  C        16.2599882537        2.4994594742       16.4540151417
  C        12.8382404584        1.1117614604       18.2678423575
  C        11.9023737198        2.0614910472       18.7429184840
  C        12.1054674903        2.5544746200       20.0504167974
  C        13.1198446607        2.0166419159       20.9041226380
  C        13.9162676739        0.9805573706       20.4905710337
  C        13.7726211638        0.6025167600       19.1737172990
  H        14.9143644748        2.2137368797       18.0637111322
  H        17.0212801226        3.0331962115       17.0199894255
  H        11.0970027898        2.4442907212       18.0881750163
  H        11.4695130246        3.3619376465       20.4052572587
  H        13.2135122607        2.3487050990       21.9317445896
  H        14.7714836453        0.5225283613       21.0666683755
  H        14.5949867668       -0.0787238664       18.8707312753
  C        12.2175471440       -0.0469675448       14.6466472891
  C        11.2608481033       -0.7969965921       13.9477549028
  C        10.1061534976       -1.3686792143       14.5950766343
  C        10.1194639331       -1.4590698033       16.0913502430
  C        11.1774712318       -0.8780822624       16.7950656959
  C        14.3184077222        1.2732058048       14.8156877546
  C        13.3355885145        0.6487657305       14.0201456169
  C        13.3552252539        0.9742549348       12.5373857215
  C        12.4692457980        1.8545509051       11.9162960876
  C        12.5488694127        2.3005183353       10.5441405752
  C        13.5707311241        1.8489677151        9.7616628731
  C        14.5090992692        0.9807650609       10.3896510922
  C        14.3579445382        0.4428400982       11.6457934188
  H        15.1572670268       -0.2128708654       12.0083990379
  H        15.3649903777        0.7168112868        9.8054444080
  H        13.6317135938        2.0918384235        8.7082826509
  H        11.7419528745        2.9213239729       10.1091910445
  H        11.6338028302        2.2203707319       12.5416400122
  C        15.5232048034        1.8350135129       14.2883438427
  C        16.5270942007        2.4085746839       15.0527050645
  H        17.4421234398        2.8549820985       14.6374447722
  H        15.6536023577        1.8213837418       13.2211013443
  C        11.3217519386       -1.3047217346       18.2128708231
  C        12.2582525537       -2.3343314115       18.4988093036
  C        12.5945693677       -2.7519193911       19.8100082631
  C        11.7221363679       -2.3431080908       20.8023696109
  C        10.7640085418       -1.3052491019       20.6386628812
  C        10.6209125352       -0.7535015377       19.3424167535
  H         9.9358840182        0.0593860361       19.2870450196
  H        10.0566749337       -0.9822427446       21.3908342190
  H        11.8348993612       -2.6555404565       21.8217349747
  H        13.4446332350       -3.3538641142       20.0313829671
  H        12.8646270541       -2.7034528766       17.6736023544
  C         8.9871209976       -2.1614968740       16.6641517356
  C         7.9244013334       -2.4645576849       15.8852268466
  C         7.9794682533       -2.5678018670       14.4856738759
  C         9.1488851372       -2.1022099976       13.8765834896
  H         9.3478408791       -2.1396892910       12.8348371695
  H         7.1855953216       -3.1023683104       13.9535145378
  H         6.9981594083       -2.8357343824       16.3610744979
  H         8.9002169003       -2.1442323028       17.7192308033
  C        11.5417603322       -1.1531079214       12.5302749124
  C        12.4400487013       -2.1436907384       12.2167898564
  C        12.6011534629       -2.6183842389       10.9057791276
  C        11.7545009181       -2.1683510859        9.8804565862
  C        10.8262405328       -1.1436668214       10.2307257508
  C        10.6950693367       -0.6074545928       11.5145053028
  H         9.9197242900        0.1499344605       11.6783762404
  H        10.2532429335       -0.6606361447        9.4458074017
  H        11.6976383322       -2.5306310665        8.8525473300
  H        13.4545821907       -3.3032648068       10.7610813156
  H        12.9739104674       -2.6189711197       13.0582359173
