140

  C         9.3325399738        7.5741349207        1.2432256456
  C         8.2416698688        8.1811376482        1.9079092424
  C         7.0830715320        8.7752922740        1.1926898406
  C         6.0943767643        9.4562722294        1.8850732402
  C         5.1141591777       10.1700176656        1.2106918672
  C         8.2468129994        8.4730309853        3.3642329075
  C         8.8358626765        9.6737951228        3.8409191368
  C         8.7549822690       10.1393269969        5.1917863557
  C         8.1221099240        9.3774541454        6.1370269273
  C         7.4202879785        8.2411862373        5.6859360929
  C         7.4681782680        7.7950358240        4.3299770855
  H         6.1280233766        9.5820348418        3.0036477822
  H         4.3133421527       10.6541905415        1.7788285948
  H         9.3351586467       10.2314605085        3.0527066041
  H         9.2573300246       11.0703050349        5.4068221293
  H         8.1310369983        9.6858579235        7.2045794233
  H         6.7560528424        7.6845695689        6.3362005491
  H         6.9624062957        6.8452219545        4.0830843375
  C         9.2513727932        7.5605994159       -0.2206522314
  C        10.2310358962        6.8242201212       -0.9537016688
  C        11.3823464047        6.3018446574       -0.3003352591
  C        11.5532580698        6.5168298143        1.1254258685
  C        10.4745408153        7.0390422671        1.9078010297
  C         7.0719588610        8.7835046445       -0.2224871261
  C         8.1842451008        8.2105399440       -0.9324270058
  C         8.4624721177        8.7093870137       -2.3668745129
  C         9.2973716500        9.8133695803       -2.4286005605
  C         9.5579913262       10.4352832513       -3.6042040214
  C         8.8465656196       10.0364561327       -4.7463202624
  C         7.8862703370        9.0371943220       -4.7033487481
  C         7.7457798472        8.2702995748       -3.5440977132
  H         7.0257476409        7.4334552273       -3.5118002314
  H         7.3080721406        8.6454147157       -5.5265411698
  H         9.0774105141       10.6189096678       -5.5889452832
  H        10.2733654597       11.2825762541       -3.7123141772
  H         9.7843731258       10.1795049338       -1.5534042692
  C         6.1433658226        9.6398618425       -0.8569245529
  C         5.0886016541       10.1927600426       -0.2159728286
  H         4.3181285457       10.7487477181       -0.6562241368
  H         6.2608612780        9.7467543220       -1.9397939299
  C        10.3439759289        6.5971134940        3.3781182914
  C         9.7047634566        5.4291978152        3.8490411833
  C         9.7032326800        5.0676228739        5.2017469054
  C        10.3151287861        5.7844093296        6.1629141709
  C        11.0579360536        6.8775765959        5.6817096782
  C        11.0577706166        7.2776555198        4.3266743847
  H        11.5452577205        8.2172667517        4.0275110361
  H        11.7189329084        7.2730275001        6.4444927798
  H        10.2157279749        5.4775788108        7.1724788215
  H         9.2336321198        4.1301981296        5.4322509383
  H         9.2043757380        4.7833021087        3.1090390787
  C        12.7749279766        6.0758296724        1.6664223265
  C        13.7469820772        5.3537323246        1.0014483109
  C        13.5177590295        4.9594508143       -0.3488577826
  C        12.4092077623        5.5372093956       -0.9553091385
  H        12.3796813438        5.3818130720       -2.0209950174
  H        14.1903171556        4.4133263295       -1.0217068513
  H        14.7124254344        5.1742855360        1.4771509424
  H        13.0185896388        6.4572020492        2.6470641575
  C        10.0072098517        6.5461176135       -2.5017521326
  C         9.0035066331        5.6825491393       -3.0099919342
  C         8.9913056487        5.1755362483       -4.3183445384
  C        10.0163502370        5.5889362970       -5.2257728795
  C        11.0787119892        6.3543138621       -4.6833478972
  C        11.0556244717        6.8200119831       -3.4113623586
  H        11.8377334618        7.5158447015       -3.0071293113
  H        11.9358693431        6.5811797401       -5.4123402450
  H         9.9394976781        5.3342845026       -6.2518547897
  H         8.1201838957        4.5907273381       -4.7134870605
  H         8.1643329084        5.4333406030       -2.3535675618
  C        16.4855871181        7.8580351402        1.3035639456
  C        15.4149105031        8.5054491793        2.0042596617
  C        14.3874527397        9.1944342448        1.2427031759
  C        13.3788561210        9.9674385219        1.8701095480
  C        12.3521791092       10.5545477400        1.0855499191
  C        15.4233204428        8.8463989572        3.5308586367
  C        16.1147266704        9.9692064774        3.9842131158
  C        16.1935188210       10.2927355165        5.3523700214
  C        15.4000020048        9.6052156156        6.2926205166
  C        14.5345962495        8.6383020189        5.7888434941
  C        14.5927307927        8.2407138086        4.4742742598
  H        13.2047592122        9.9522555014        2.9731350318
  H        11.5670861491       11.0923698625        1.5944562159
  H        16.7483835408       10.6367544859        3.3853778051
  H        16.8798237864       11.1254539502        5.6808006238
  H        15.3334042495        9.8822167792        7.3340282755
  H        14.0345907171        8.0399084658        6.5064819241
  H        13.9695404645        7.4414986437        4.0723293818
  C        16.5186517762        7.8339817856       -0.1602345868
  C        17.5739545942        7.0044360858       -0.8916729471
  C        18.7309410201        6.5906072031       -0.1937300847
  C        18.6469455332        6.5594290806        1.2766325327
  C        17.5719314031        7.1454691676        1.9716093780
  C        14.5114804096        9.2248614453       -0.2179506576
  C        15.5790497363        8.6326266492       -0.9046125258
  C        15.6583070006        8.9392287350       -2.3718011925
  C        16.4455455957        9.9828700465       -2.7988429541
  C        16.3497400903       10.4568763389       -4.0858858303
  C        15.4770102057        9.8761133491       -4.9611224806
  C        14.6293533164        8.8279703933       -4.5923649580
  C        14.8137552210        8.2895727772       -3.3088055116
  H        14.1796277265        7.4697450514       -3.0444990902
  H        13.9376631408        8.4161578030       -5.3107003175
  H        15.4271130747       10.2560217948       -6.0216417081
  H        16.9191309815       11.3263142901       -4.4067431455
  H        17.0165487182       10.4748343640       -2.0135058620
  C        13.4963130720        9.9350010572       -0.9749963466
  C        12.4461354944       10.5616294921       -0.3179449041
  H        11.6472280849       10.9638516283       -0.9204330059
  H        13.7342403049       10.0208795745       -2.0422630050
  C        17.5219411181        6.7454299274        3.4404964993
  C        16.7125140149        5.7359296963        3.9494521199
  C        16.8113421114        5.3172113341        5.2973556873
  C        17.6604391898        5.9846118659        6.1551520737
  C        18.5099778631        7.0045674154        5.6173315060
  C        18.3137932680        7.4658474097        4.3206576167
  H        18.9052108445        8.2795847562        3.9267167106
  H        19.2240662936        7.4330945964        6.3001317538
  H        17.7185371948        5.8071302687        7.2140434912
  H        16.1512196417        4.5705201150        5.6989055624
  H        16.0197679418        5.2641227027        3.2327951771
  C        19.7289661657        5.8683628188        1.9593759456
  C        20.6971001642        5.2404692007        1.3311264151
  C        20.7897321461        5.1764262335       -0.1100846852
  C        19.7733776690        5.7845692243       -0.8218259368
  H        19.8094733783        5.7474099936       -1.9072817014
  H        21.6580499269        4.6769084767       -0.5844008747
  H        21.4761815248        4.8232203171        1.9758728732
  H        19.6785445037        5.7880919881        3.0302798912
  C        17.4584173625        6.6633403553       -2.3144501978
  C        16.6120068079        5.6557458455       -2.7787258342
  C        16.5686313682        5.1921119247       -4.1559189300
  C        17.5852312202        5.6775005664       -4.9608051026
  C        18.4996527707        6.6025172098       -4.5577585340
  C        18.3959397065        7.2275348197       -3.2434628085
  H        19.0788109710        8.0079150994       -2.9585183608
  H        19.2692819705        6.9517614048       -5.2643366659
  H        17.6908792885        5.3183109037       -6.0142122306
  H        15.9815504008        4.2727852780       -4.4581392815
  H        15.8718117991        5.3356461089       -2.0888359834
