140

  C         3.7151808248        0.1357615008       14.1618852196
  C         4.5888600865        1.0011693000       14.8598687257
  C         5.7296477757        1.4412351084       14.1391247873
  C         6.8019033117        2.1444600534       14.8755630283
  C         7.8286632232        2.7082219996       14.1875081451
  C         4.4420734157        1.3746235786       16.3211268841
  C         3.5181437869        2.3836478005       16.6619895271
  C         3.3443635439        2.7472030901       18.0298337677
  C         4.1732853277        2.1216220341       19.0223660874
  C         5.0849025802        1.1448782982       18.6161658885
  C         5.1664173038        0.7386017386       17.3529290020
  H         6.7051531378        2.2370391492       15.9343513185
  H         8.5029514269        3.4192429990       14.6943198979
  H         2.9373946990        2.9718593753       15.9503501689
  H         2.5479622961        3.4790131769       18.1481021657
  H         4.1815873865        2.3840356251       20.0799580284
  H         5.5316644456        0.5807052433       19.4222323288
  H         5.9561286879        0.0028088422       17.1059526305
  C         3.7135259460       -0.0122172381       12.6380303417
  C         2.7015766556       -0.7326074295       12.0357899472
  C         1.5654987188       -1.1655124877       12.7895609690
  C         1.6833990115       -1.2646611565       14.2274926757
  C         2.7209277465       -0.6176394523       14.8970520177
  C         5.8933519113        1.2156414425       12.7189503790
  C         4.8625384290        0.4972171066       12.0044827592
  C         4.7424387348        0.9472775533       10.5695740350
  C         3.9218545637        1.9856686886       10.1436647636
  C         3.9806534279        2.4781844389        8.8728079124
  C         4.9385563684        1.9734807448        7.9545348815
  C         5.8811008542        1.0345759183        8.2980843185
  C         5.7411874178        0.5668444994        9.6817469593
  H         6.5331085292       -0.1108302634       10.0214772227
  H         6.6096470354        0.6670193119        7.6258549046
  H         4.8684471263        2.4340505233        6.9529997369
  H         3.2034290444        3.1225981694        8.4388753903
  H         3.1071068692        2.2234908618       10.8554374150
  C         6.9577188079        1.8659194660       12.0535073054
  C         7.8734595653        2.6118996368       12.7647521280
  H         8.6143168645        3.3014020331       12.2929336823
  H         7.0505642320        1.8403562404       10.9695435449
  C         2.7192354624       -0.9670414397       16.3646967951
  C         3.4822882934       -1.9558269894       16.8494685160
  C         3.4058154222       -2.4561243392       18.1187727592
  C         2.3876829876       -2.0139053454       18.9701943464
  C         1.5969747929       -0.9381382875       18.4485132191
  C         1.7563292977       -0.4037249726       17.1643055652
  H         1.2518349016        0.4912957482       16.8387153855
  H         0.8850804310       -0.5116074700       19.0966188667
  H         2.2820606016       -2.3841367084       20.0047448016
  H         4.0412608790       -3.3174755748       18.3449383896
  H         4.1022636176       -2.4586732258       16.1270154602
  C         0.6317330806       -2.0094110591       14.9366161771
  C        -0.3515775737       -2.6741283833       14.2757304324
  C        -0.3499059984       -2.6201293252       12.8562083199
  C         0.4555940818       -1.8369972598       12.1319569571
  H         0.3435837220       -1.8511318581       11.0845507822
  H        -1.2541679624       -3.0363254699       12.4000881228
  H        -1.1938230556       -3.1484968233       14.7413786682
  H         0.6685009670       -2.1572338010       16.0087672943
  C         2.7691230761       -1.1599567733       10.6139618122
  C         3.7170009888       -2.1106224212       10.2231540923
  C         3.7846412246       -2.5946239254        8.9365124373
  C         2.8672201298       -2.2155899628        7.9949231550
  C         2.0218335604       -1.1989393727        8.3263770580
  C         1.9342097519       -0.6574241576        9.6309853512
  H         1.2481107240        0.1114566078        9.9217043969
  H         1.3391863260       -0.8368378057        7.4300120907
  H         2.8913108651       -2.5432637798        6.9407795022
  H         4.5649789271       -3.3192619842        8.7587485256
  H         4.3965586499       -2.3848649456       11.0435247285
  C        10.7911101835       -0.2309361014       14.1310414176
  C        11.7910571665        0.5442147569       14.8785871667
  C        12.8553857814        1.0789174842       14.1894023305
  C        14.0429401904        1.5494716703       14.8519200433
  C        15.1117517186        2.0897488128       14.1934451851
  C        11.5782352059        0.9794424858       16.3014364892
  C        10.5289632394        1.9120575888       16.4375138688
  C        10.3975346074        2.5946434783       17.6548882194
  C        11.3086797081        2.4367847247       18.6930574755
  C        12.3180439717        1.4727608142       18.5962189778
  C        12.4327091985        0.7201096494       17.4121881790
  H        14.0811208261        1.4448059327       15.8981777762
  H        15.9336209778        2.5008667170       14.7287840991
  H         9.9227848824        2.0632360622       15.5441925462
  H         9.5864254511        3.2897703451       17.8242059478
  H        11.0622677395        3.0255438660       19.5911698110
  H        12.9472002572        1.1573869893       19.4161261130
  H        13.3039997783        0.0845875760       17.3106149906
  C        10.8084853983       -0.1795651238       12.6694138092
  C         9.7651446175       -0.8004975470       11.8813782423
  C         8.6446117067       -1.3879497361       12.5508362605
  C         8.5817971673       -1.3957933236       13.9742283724
  C         9.6645930841       -0.9073848726       14.7556072966
  C        12.8921408188        1.0226879607       12.6885662195
  C        11.8178563827        0.5430227115       11.9489915559
  C        11.6734254225        0.9113565908       10.5067413959
  C        10.8202315989        1.9836415589       10.2456383115
  C        10.5854745059        2.4287713289        8.9417761769
  C        11.3327343991        1.8906308871        7.8999302191
  C        12.2009731013        0.8764391005        8.1028393800
  C        12.4232883716        0.3928533044        9.4462397059
  H        13.2153337246       -0.2655912580        9.7020734560
  H        12.7706904901        0.4460925434        7.2885992754
  H        11.3185006499        2.3587413664        6.9232198261
  H         9.7654527033        3.1230348975        8.8178586286
  H        10.3284427766        2.4340536934       11.0645062364
  C        14.0193946429        1.6848858177       12.0441867876
  C        15.1285373032        2.0205257088       12.7724194603
  H        15.9892844886        2.4565469011       12.2741826805
  H        14.0088965756        1.7441175993       10.9499511450
  C         9.7692914618       -1.2481943804       16.2171176303
  C        10.7249545880       -2.2322231902       16.5573858155
  C        10.8658216903       -2.7662883633       17.8392104395
  C        10.0439978129       -2.3226134770       18.8416691501
  C         9.0521410363       -1.3270088206       18.5562881794
  C         8.8908232900       -0.8289662355       17.2668735442
  H         8.1451867190       -0.0435254708       17.1919176435
  H         8.4159629925       -1.0398793555       19.3703445424
  H        10.1659890238       -2.5823466622       19.8708576326
  H        11.7186807079       -3.4354107902       18.0537155863
  H        11.3190698389       -2.6465232103       15.7693089644
  C         7.4420215226       -1.9429255967       14.5539476404
  C         6.4796728328       -2.6724279241       13.8657681926
  C         6.6231122298       -2.7569859260       12.5086953483
  C         7.6653082668       -2.1606817563       11.8393454901
  H         7.7152881863       -2.1887218485       10.7372769369
  H         5.9149263137       -3.3023814530       11.8604261235
  H         5.8246650017       -3.2070229055       14.5053011790
  H         7.3964350942       -2.0377359245       15.6330097679
  C         9.8744933847       -1.1962916075       10.4446700459
  C        10.6935404577       -2.3052818738       10.1015394527
  C        10.7297548153       -2.7632098620        8.7792959514
  C         9.9948396150       -2.1340150633        7.7702839423
  C         9.2366856748       -0.9931585494        8.1130312624
  C         9.2514778463       -0.4854725441        9.4124989498
  H         8.7538652651        0.4520684486        9.7096689628
  H         8.5281144838       -0.5813882804        7.3702415559
  H         9.9330947406       -2.3982218070        6.7139313608
  H        11.3343066994       -3.6543118660        8.5530624068
  H        11.2366332842       -2.7651001876       10.9405141295
