140

  C         2.0152636618        0.7397128408       14.6970302294
  C         3.0706133964        1.4361590388       15.4560255034
  C         4.1537202126        1.9897071980       14.7241798687
  C         5.2558273406        2.6776380856       15.4163369265
  C         6.2077830336        3.3170717393       14.7179730130
  C         2.9334022535        1.9000448374       16.8641588133
  C         2.0177774019        2.9414715218       17.0887272815
  C         1.8577502943        3.4696734090       18.3917746418
  C         2.5926034053        2.8564111036       19.4267689559
  C         3.4255311047        1.7769053806       19.1526042754
  C         3.5997594261        1.2912156686       17.8940185313
  H         5.1542705656        2.6422393115       16.5118662105
  H         7.0074992982        3.8342385310       15.3210432616
  H         1.5000459576        3.3686053494       16.2140395940
  H         1.1886161032        4.2808761636       18.6353446757
  H         2.5309874701        3.1768007303       20.4722918854
  H         4.0037646279        1.3273922530       19.9748326132
  H         4.1518148648        0.3880602574       17.8093707447
  C         2.0722556176        0.6879307186       13.2390462732
  C         0.8860555178        0.1971353881       12.6056115734
  C        -0.1468496962       -0.4295441313       13.3337091947
  C        -0.1028134053       -0.4570926340       14.7598257037
  C         0.9944226470        0.1304717199       15.4948687295
  C         4.1209365394        2.0149532774       13.2784378068
  C         3.0342787887        1.4535935078       12.5551981433
  C         2.9735237296        1.7568140844       11.1043370603
  C         2.1768930660        2.9082843078       10.7212102328
  C         2.1540225756        3.3636436993        9.3958236260
  C         3.0523848774        2.8811344976        8.3847230036
  C         3.8171197457        1.7695877578        8.7238483463
  C         3.7342750117        1.2180139028       10.0208807383
  H         4.3719484196        0.3565959732       10.2193777911
  H         4.4636496049        1.3205742123        8.0124725404
  H         3.0387515828        3.2931891771        7.4161532029
  H         1.5951381873        4.2052513080        9.0552095082
  H         1.4987847542        3.4484492871       11.3430930959
  C         5.2013119187        2.7114359978       12.6274189782
  C         6.2513843924        3.3020711271       13.2715251994
  H         7.0518912867        3.8406780579       12.7441968320
  H         5.2649219633        2.7977369199       11.5154490193
  C         1.1138472287       -0.3265208183       16.9589957237
  C         1.8647208114       -1.5014451771       17.2699635923
  C         1.7685009993       -2.0260615883       18.5576622493
  C         0.8478416869       -1.5024175627       19.4680597451
  C         0.1853490372       -0.3235520247       19.2071535184
  C         0.3274549619        0.2537153755       17.9836733426
  H        -0.3027256346        1.1006641860       17.6597915477
  H        -0.6690381825       -0.0976492713       19.9001037563
  H         0.6165602375       -2.1160609653       20.3596077367
  H         2.3470128927       -2.9337827769       18.8401094569
  H         2.3616666809       -1.9127953805       16.3925811060
  C        -1.1960494047       -1.1689561923       15.4505708252
  C        -2.2947660432       -1.5882686363       14.7614600622
  C        -2.3396999446       -1.5489986344       13.3313414540
  C        -1.2485410503       -1.0304569673       12.6480211248
  H        -1.2861580539       -1.1177745336       11.5510409649
  H        -3.2042625282       -2.0253527118       12.7890512439
  H        -3.1684700766       -1.9358547860       15.3333394466
  H        -1.1703931160       -1.0969944365       16.5673439078
  C         1.0409668896       -0.2135044593       11.1562430910
  C         1.8267880643       -1.3921841085       10.9661982069
  C         2.0091854879       -1.8610306140        9.6809545373
  C         1.2193256011       -1.4123778501        8.6036147045
  C         0.2383988780       -0.4110447737        8.8572061286
  C         0.1837904432        0.1437869475       10.1257556336
  H        -0.3914123558        1.0851448836       10.1810582181
  H        -0.4468511297       -0.0696259789        8.1426873839
  H         1.3642224948       -1.9028805434        7.6227309984
  H         2.6945165395       -2.6513158343        9.5523300530
  H         2.4226586119       -1.7727839398       11.7757825300
  C         9.2264710953        0.7640240005       14.8220027975
  C        10.3256413713        1.3767502446       15.4918996290
  C        11.4705394923        1.6958111725       14.7429900279
  C        12.6317121071        2.2312941204       15.3721139524
  C        13.6564691916        2.7680442922       14.6918565285
  C        10.3025694071        1.8354573973       16.9147184786
  C         9.4517564540        2.8333683110       17.3510335632
  C         9.3525902485        3.1868853395       18.7201854757
  C        10.2190674848        2.6058881415       19.7098447056
  C        11.1773964666        1.7160842766       19.2267372791
  C        11.1456866885        1.2435271692       17.8718376978
  H        12.7207935675        2.1534126257       16.4686570574
  H        14.4645119628        3.2152358420       15.2817567843
  H         8.9057622410        3.3770870122       16.5776606009
  H         8.6458739607        3.9603648100       19.1163443943
  H        10.1671796777        2.9557737174       20.7983058278
  H        11.8844751568        1.3235134554       19.9315247619
  H        11.7864778979        0.3926496588       17.5557176840
  C         9.1659291807        0.7174317761       13.3422860040
  C         8.0536759292        0.1447262084       12.6767752547
  C         6.9444883385       -0.3911502421       13.3170910186
  C         6.9676469302       -0.2969221219       14.7949121139
  C         8.1700177543        0.1197422031       15.4914761197
  C        11.3765498621        1.7927709257       13.2773934957
  C        10.2152693041        1.4547894334       12.5605795566
  C        10.1078765413        1.8563611677       11.1283184621
  C         9.2142369071        2.8475784625       10.7964053190
  C         9.0895424047        3.3276800872        9.5357369861
  C         9.9438249517        2.8370524726        8.5041774009
  C        10.7946177383        1.7671402758        8.7489242494
  C        10.8695204630        1.2978758465       10.0866230265
  H        11.5824264688        0.5027734533       10.3078735414
  H        11.5518192949        1.4443000233        8.0401507354
  H         9.9119599378        3.3676571489        7.5936583693
  H         8.5048609910        4.1934623770        9.3549742401
  H         8.6277305615        3.2384817667       11.6520990274
  C        12.4982864753        2.5464379393       12.6453826063
  C        13.5846797692        2.9394200710       13.2625936490
  H        14.3578002370        3.4484315620       12.6519326492
  H        12.2880339309        2.6965673726       11.5873651488
  C         8.2623335429       -0.1451471697       16.9883017684
  C         9.0185109044       -1.1736985782       17.5202701588
  C         8.8460906635       -1.6084146394       18.8903559367
  C         7.8012988303       -0.9799192024       19.6053668818
  C         7.0218650694        0.0206457474       19.0494556379
  C         7.1916675083        0.4199914838       17.7324194187
  H         6.4606886755        1.1750479380       17.4167210131
  H         6.3000833626        0.5064633381       19.6643541917
  H         7.5782803869       -1.1778405601       20.6476664691
  H         9.4506403123       -2.4017440246       19.2996272026
  H         9.6353123756       -1.7168371963       16.8169049073
  C         5.8445508253       -0.8461200574       15.5101542674
  C         4.7694889115       -1.3251177243       14.7872141913
  C         4.7236418830       -1.3592686079       13.3012019148
  C         5.8725417457       -1.0299840996       12.6063559610
  H         5.9996995456       -1.2003591680       11.5495027353
  H         3.8936592678       -1.8486417043       12.7137627778
  H         3.9609189731       -1.8099029030       15.2938868865
  H         5.7938573049       -0.7789727658       16.5664747596
  C         8.2457218966       -0.1814776621       11.1909606736
  C         9.1335125485       -1.2073571300       10.8337807148
  C         9.0977400722       -1.7747193718        9.5791741222
  C         8.2327337676       -1.1541899096        8.6231519372
  C         7.5137319810       -0.0112714218        8.9526814551
  C         7.4139806991        0.3928633543       10.2651190732
  H         6.6696858794        1.1280628726       10.5719624833
  H         6.8734036093        0.5167665513        8.1961448258
  H         8.2763519448       -1.5423531052        7.6024624006
  H         9.7117831657       -2.6155379701        9.2600101505
  H         9.8159981579       -1.6028114141       11.6747329302
