140

  C        11.7493789567        6.4917866735        0.2295060432
  C        10.8891892959        7.2723745006        1.0324715509
  C         9.7291611390        7.8474696605        0.3563237679
  C         8.6539273476        8.3618221428        1.2301507907
  C         7.4885556696        8.7943932201        0.6835416575
  C        10.9562313309        7.5535413715        2.4853136799
  C        11.5335575641        8.7484554544        3.0689355308
  C        11.3154163111        9.0875369073        4.4525671221
  C        10.6081497418        8.2545367979        5.2656689660
  C        10.1199756913        7.0153411195        4.7340269704
  C        10.3189601165        6.6711935956        3.4277061615
  H         8.8314573397        8.3261400778        2.3103638546
  H         6.8236257015        9.3159418543        1.3712857945
  H        12.0547100501        9.3788845074        2.4418847231
  H        11.7732416372        9.9895012320        4.7822346038
  H        10.4338926947        8.4859333659        6.3548507674
  H         9.5473479092        6.3372447788        5.3590977246
  H        10.1106941830        5.6860582428        3.1322806421
  C        11.6088151982        6.4010320992       -1.2292568392
  C        12.5658214707        5.6856018216       -1.9836341527
  C        13.6917129017        4.9992798580       -1.3853234930
  C        13.9303623080        5.1397568179        0.0479174125
  C        12.9149077777        5.7961627003        0.8086775933
  C         9.4978557766        7.7597682977       -1.0330947210
  C        10.5658876069        7.2497562435       -1.8594116819
  C        10.6874461040        7.5525014720       -3.2796577906
  C        11.6448471130        8.4773540171       -3.7279985821
  C        11.8538868981        8.8178015702       -5.0556944061
  C        11.1416269227        8.1554753334       -5.9978386316
  C        10.0369484726        7.3285563301       -5.6218468361
  C         9.8271915493        7.0068119043       -4.2619710877
  H         9.1750443066        6.1527462775       -3.9936036689
  H         9.3801022318        6.8190592446       -6.3561693970
  H        11.4384121253        8.2007771124       -6.9981740439
  H        12.6281144193        9.5020383458       -5.3922283950
  H        12.2805093254        8.8961647275       -2.9427088675
  C         8.2335366816        8.2806350039       -1.5401622898
  C         7.2517929776        8.7127532959       -0.6971105714
  H         6.3333514744        9.1499089561       -1.0677475143
  H         8.1442272975        8.1645927166       -2.6392948118
  C        12.9636128527        5.4706147276        2.2938227416
  C        12.1554872374        4.3611459985        2.7009989296
  C        12.0939301709        3.9866874423        4.0736846652
  C        12.9316338219        4.6013537975        4.9727873103
  C        13.7993097096        5.6841000428        4.5767924690
  C        13.8653679088        6.1141646100        3.2230714443
  H        14.4997012920        6.9447828843        2.9025462201
  H        14.3651430975        6.3218820407        5.2625903417
  H        13.0032022027        4.4206883477        6.0173973935
  H        11.4673445194        3.1697175914        4.3703131801
  H        11.4541325916        3.9615461432        1.9580732585
  C        15.1304672996        4.5790408971        0.6084040244
  C        16.1387313346        4.1001712316       -0.2420670059
  C        15.8307239718        3.7973243055       -1.5728800040
  C        14.6381614067        4.2190872185       -2.1227988342
  H        14.4269932040        4.0792459961       -3.1933175749
  H        16.4607513630        3.1971120270       -2.1943368770
  H        17.0473300890        3.7523907993        0.1915712740
  H        15.2832203440        4.7572418978        1.6707676145
  C        12.2648158686        5.2575398475       -3.4130736642
  C        11.3366122065        4.2214500036       -3.6586815144
  C        11.3459699787        3.6220089682       -4.8950474356
  C        12.1548739809        4.0842249027       -5.9392684079
  C        13.0591332509        5.1444601466       -5.6768935965
  C        13.1286445769        5.6469441125       -4.4213052806
  H        13.8204668160        6.4637745825       -4.1280506106
  H        13.7741590994        5.4453838312       -6.4307128550
  H        12.2451674080        3.5169509085       -6.8980105336
  H        10.8093957720        2.6494211769       -5.0217149979
  H        10.7586364979        3.8352835393       -2.8462956032
  C        18.8646796810        6.2873431162        0.3993549876
  C        17.8703438234        7.0717921853        1.0822308014
  C        16.8464506799        7.7351011247        0.3700157344
  C        15.8820028931        8.5332870378        1.0784864882
  C        14.9044502950        9.1551621309        0.3842680458
  C        18.0153596564        7.4832595302        2.5368335917
  C        18.8386600980        8.5601543046        2.9030748669
  C        18.8357856702        9.0777596371        4.1994537873
  C        17.9217836865        8.5739412110        5.2160894454
  C        17.0600641779        7.5770751904        4.7979274001
  C        17.0978513192        7.0304188760        3.5166219335
  H        15.9811645294        8.7123518199        2.1275132896
  H        14.2683672962        9.8684580764        0.8473681436
  H        19.5614908522        8.9208378512        2.2005029995
  H        19.5354361716        9.9277351419        4.4460401290
  H        17.8993709578        8.8678239825        6.2634622815
  H        16.2771249040        7.2493756610        5.4753342628
  H        16.4910768040        6.2133267199        3.1751823542
  C        18.9470686093        6.3387945265       -1.1051749173
  C        19.8505249974        5.4947257011       -1.7765849695
  C        20.8865821525        4.8767044461       -1.0559931252
  C        20.9639822415        5.0239316219        0.3846331188
  C        19.8846384128        5.5671861622        1.0837621910
  C        16.8042182726        7.6252373402       -1.0886113536
  C        17.8594153147        7.0766242546       -1.7807045859
  C        17.7945807661        7.3985343297       -3.2601862914
  C        18.1658330713        8.6776602601       -3.7449089547
  C        18.0686920276        9.0194371595       -5.0886085235
  C        17.3656527599        8.2092604481       -6.0097037344
  C        16.8127464394        7.0465970044       -5.4867842101
  C        17.0880798327        6.6088889184       -4.1824479899
  H        16.6722081869        5.6400944577       -3.8965995848
  H        16.1142116689        6.4159601481       -6.1012961893
  H        17.3270750877        8.4161665655       -7.0824191228
  H        18.5945444254        9.9719014918       -5.3777657084
  H        18.7419583700        9.3789363013       -3.0381929683
  C        15.7365740499        8.2756229052       -1.7812177142
  C        14.7970565353        8.9529761886       -1.0417040035
  H        13.9487456057        9.3714226076       -1.5248575874
  H        15.5990595001        8.0761312979       -2.8423576347
  C        19.8848848304        5.3120850072        2.5716998858
  C        19.0370950744        4.4051651254        3.1046135426
  C        19.0346270487        4.0824215666        4.4945751559
  C        19.7212672563        4.8559054409        5.4080372002
  C        20.6178858268        5.8340765203        4.8852103230
  C        20.6824910902        6.0211610226        3.4965320366
  H        21.3320228990        6.8150099111        3.1843173426
  H        21.2859737225        6.4019107682        5.6008717806
  H        19.7069079441        4.6128740465        6.4664640327
  H        18.4072443630        3.2948479793        4.8940258361
  H        18.4857828848        3.7949270471        2.4701509269
  C        22.1000076565        4.4470800051        1.0482936692
  C        23.1443982035        3.7923655371        0.3738434950
  C        23.0435393664        3.6658141818       -1.0195442291
  C        22.0031044939        4.2324480202       -1.7059736144
  H        22.0182533253        4.2331101422       -2.7626300236
  H        23.7763434294        3.1235543483       -1.6232351057
  H        23.9257693860        3.3580776706        0.9479375225
  H        22.1601155749        4.5264656394        2.0908374627
  C        19.7035740656        5.2395737289       -3.2688322759
  C        18.9376370185        4.1756463596       -3.6616053305
  C        18.9491980272        3.7257522505       -5.0339296534
  C        19.6196080164        4.4929354344       -5.9998363052
  C        20.4229103756        5.5555158454       -5.5542859253
  C        20.5430459340        5.8867715428       -4.2271132791
  H        21.2816133498        6.7158504413       -3.9328571951
  H        20.9075978399        6.1631845248       -6.3261944970
  H        19.5336432677        4.2977060571       -7.0735004538
  H        18.3068115182        2.9308217309       -5.3315467989
  H        18.2914254114        3.6658111703       -2.9881108837
