140

  C        12.8278985237        6.6552269393        2.5717135552
  C        11.8936946032        7.5356317232        3.2776673570
  C        10.8095079863        8.0665986724        2.5646488603
  C         9.6740683942        8.7887018244        3.1926732553
  C         8.6083162236        9.2178269941        2.4927675866
  C        12.0171756370        7.8651287410        4.7395196345
  C        12.7412280494        8.9879045670        5.1069251198
  C        12.8070033494        9.4256348627        6.4552279435
  C        12.2453348668        8.6188478993        7.4883978783
  C        11.4445056843        7.5797260473        7.0863810011
  C        11.2992955978        7.2171206470        5.7571999305
  H         9.6721523499        8.7815880103        4.2941164672
  H         7.7645060018        9.7387928400        2.9182360922
  H        13.2764803084        9.6124891031        4.3620616306
  H        13.3715046528       10.3440091368        6.6623056260
  H        12.2917297167        8.8833732946        8.4956872673
  H        10.9566548241        6.9659444847        7.8671309181
  H        10.6918363036        6.3564471246        5.4878769888
  C        12.8338938633        6.6346157433        1.0545784695
  C        13.8191526338        5.8780917973        0.3689086506
  C        14.8798289095        5.2327388290        1.1591897964
  C        14.9122611961        5.1775048230        2.6254461546
  C        13.7503225434        5.8560613373        3.3446478099
  C        10.7774794236        7.9462338443        1.1347327258
  C        11.8771176818        7.4272226976        0.3838765927
  C        12.0738749397        8.0071801460       -1.0018605854
  C        12.7989432078        9.1781502613       -1.2454805307
  C        12.5984536588        9.8900601286       -2.4648927870
  C        11.9092806707        9.3161218213       -3.5381683946
  C        11.2787434845        8.0540203580       -3.2629231001
  C        11.4072759661        7.4249218607       -2.0656953977
  H        10.9110555443        6.4278144626       -1.8020106921
  H        10.7963330412        7.5519098878       -4.0484642358
  H        11.7070569432        9.7256753272       -4.5291055578
  H        13.0453958657       10.9111666290       -2.5884469961
  H        13.3401646313        9.6683175248       -0.4344725834
  C         9.6906348573        8.6343090656        0.3845073672
  C         8.7158039729        9.3226173313        1.0618898745
  H         7.9173252641        9.8267782474        0.4884044657
  H         9.7564282810        8.7697664459       -0.6761757477
  C        13.7581077080        5.7037742902        4.8121915701
  C        12.9626620419        4.6589145882        5.4469702685
  C        13.1144601893        4.3773933037        6.8029163949
  C        14.0012017500        5.1838991805        7.6342154390
  C        14.7631476749        6.1768638791        6.9674330981
  C        14.6378779662        6.4396767679        5.6023681881
  H        15.2864693097        7.0988252957        5.0950136178
  H        15.4912638270        6.8050340548        7.5077895992
  H        14.0463627651        5.0997559912        8.7136088766
  H        12.4864288171        3.6149810371        7.2643260425
  H        12.2050750326        4.0868703154        4.9376604291
  C        15.9809031497        4.6294022001        3.3733454808
  C        17.0270190910        4.1633563096        2.6022432324
  C        17.0048655401        4.1184401495        1.1717626137
  C        15.9929092203        4.6588179691        0.4653766186
  H        15.9750358775        4.5249899523       -0.6092136345
  H        17.9249793353        3.7675980124        0.7062595699
  H        17.8751159079        3.6262618912        3.0471598096
  H        16.0005426141        4.5853876457        4.4550805451
  C        13.8513801996        5.5827762262       -1.0768076454
  C        13.0133597279        4.5190666133       -1.4848454856
  C        12.9723994823        4.0377127252       -2.8388018276
  C        13.8391849150        4.6175057423       -3.7506813692
  C        14.7189171450        5.5964973223       -3.3426477025
  C        14.7378563074        6.1129827953       -2.0246377648
  H        15.3866111878        6.8417849320       -1.6615823876
  H        15.4647597686        5.9517062006       -3.9963621519
  H        13.8020524485        4.3106957780       -4.8318740746
  H        12.2248204630        3.3099864040       -3.1525783386
  H        12.3714158969        4.0424545183       -0.6862630906
  C        19.9714365606        6.4602201997        2.8178046802
  C        19.0935529280        7.2150635387        3.5800750351
  C        17.9614775441        7.7539317403        2.9183583866
  C        17.0893195779        8.6532149863        3.5819853119
  C        16.1635721156        9.4425319156        2.9687179473
  C        19.1477722235        7.5922969520        5.0202394955
  C        19.8487365515        8.7580574982        5.4596768937
  C        19.7609928993        9.0837468940        6.7981019344
  C        18.9944219708        8.3264214837        7.7059347389
  C        18.3974586007        7.1188010372        7.2904902749
  C        18.4151521496        6.8123734495        5.9181203898
  H        17.2579649457        8.7947126945        4.6649756831
  H        15.6565912596       10.1528260138        3.6106644539
  H        20.4267384789        9.4157159042        4.8456823386
  H        20.2965346159        9.9753990182        7.1823054889
  H        18.8833743508        8.6133892069        8.7672549578
  H        17.9006917471        6.5412527011        8.0353499844
  H        17.9295871762        5.9333254596        5.5544746792
  C        19.8645606813        6.4459900953        1.3008758464
  C        20.9830613058        5.8448627995        0.5629552579
  C        22.1263860575        5.3322645404        1.2834659811
  C        22.2463853631        5.4590680125        2.6973503986
  C        21.1240906801        5.9016333242        3.4434593363
  C        17.7743266996        7.7910328969        1.4469108648
  C        18.8169956623        7.1972809227        0.6582865602
  C        18.9562443433        7.5856253828       -0.7801054494
  C        19.8287692138        8.6410102510       -1.0512849053
  C        19.9867964874        9.0940794628       -2.3543523047
  C        19.2164272854        8.6476619864       -3.3837501372
  C        18.3383881398        7.5605454039       -3.1421260409
  C        18.2268476649        7.0443452949       -1.8473362432
  H        17.5723496875        6.1668787845       -1.6243392489
  H        17.7589938618        7.0993533497       -3.9689230907
  H        19.3018730861        9.0311034211       -4.3804183644
  H        20.7223918651        9.8976035589       -2.5662045983
  H        20.2928026556        9.1232373673       -0.2081496010
  C        16.6488210379        8.3637822456        0.8549933768
  C        15.7988234695        9.1657797194        1.5531346969
  H        15.0461759178        9.6972878143        1.0264845988
  H        16.5087184043        8.2941577974       -0.2884619541
  C        21.1555903064        5.5043643140        4.8960071031
  C        20.3160337655        4.4230179529        5.2510204227
  C        20.2626657792        3.9629147682        6.6141942348
  C        21.1689127212        4.4699788453        7.5238879087
  C        21.9697764571        5.5368756930        7.1929730736
  C        21.9187858617        6.1285405701        5.9204915644
  H        22.6548125858        6.8464848742        5.5433938951
  H        22.7400919657        5.8774098516        7.8695629874
  H        21.2010246897        4.1309662604        8.5762256077
  H        19.6881862824        3.0915159271        6.8939509136
  H        19.6682692163        3.9923580794        4.4856713581
  C        23.3959115012        4.9368074956        3.3140650449
  C        24.4152135726        4.2829589598        2.6409675823
  C        24.2042327564        4.0917397790        1.2239044869
  C        23.1506680023        4.6523304628        0.5895537705
  H        23.0609565357        4.6450912868       -0.4699561991
  H        24.9569062747        3.5652024924        0.6653517254
  H        25.3686523010        3.9366560370        3.0639598241
  H        23.5052393835        5.1032397796        4.3890939480
  C        20.9537614291        5.5443700216       -0.9742485401
  C        20.1486350390        4.4847929535       -1.5111239420
  C        20.3267598858        4.0574371845       -2.8445050584
  C        21.3590200880        4.6655971134       -3.6007498214
  C        22.1767158163        5.6459163031       -3.0461241134
  C        21.9735288616        6.1068043252       -1.7736479194
  H        22.7218719494        6.7533495359       -1.2560585121
  H        22.8632583428        6.2396719327       -3.6853870293
  H        21.5325234046        4.3467997373       -4.6159664586
  H        19.7706624604        3.2913055437       -3.2361324631
  H        19.3140766593        4.1634175707       -0.8948952665
