140

  C        10.4755886110        7.4357046879        0.8990614193
  C         9.4276595774        8.1159963210        1.5615383903
  C         8.3107859687        8.6278759359        0.8073039190
  C         7.1893334649        9.2846240978        1.3747769123
  C         6.2272005537        9.9581299487        0.5889718870
  C         9.4607937005        8.4442134822        3.0385810142
  C        10.1195811472        9.5202132057        3.6081597001
  C        10.0849864174        9.7369521823        5.0375616174
  C         9.1959881695        8.9177547205        5.8322087755
  C         8.5020713719        7.8501340651        5.2719157877
  C         8.6864953948        7.6357437659        3.8619310385
  H         7.0278122926        9.2739787860        2.4738518635
  H         5.4706753201       10.4259822884        1.1740224078
  H        10.6576562999       10.3225525091        3.0878300782
  H        10.6121765436       10.5799324215        5.5128565952
  H         9.1084255525        9.1479153289        6.9656467157
  H         7.8330602331        7.1239524672        5.7793541502
  H         8.2103721203        6.7838229185        3.3425473357
  C        10.5054141095        7.3478279833       -0.5849728620
  C        11.6341736664        6.7392793648       -1.2724026199
  C        12.6963705589        6.1906712122       -0.4801611515
  C        12.6355050015        6.1896436035        1.0213035337
  C        11.5709566144        6.8701034844        1.6415714944
  C         8.4269498171        8.6356689681       -0.6519268796
  C         9.4955486639        8.0091006598       -1.3013031885
  C         9.5877285389        8.2587512189       -2.7270920877
  C        10.4393682721        9.3616823933       -3.2130543126
  C        10.3019892580        9.7556071520       -4.5688210193
  C         9.4352352912        9.1025733794       -5.4135429181
  C         8.5068249867        8.2165227254       -4.8288495896
  C         8.5864452759        7.7093998046       -3.5266289356
  H         7.9522002724        6.9167301685       -3.1841811577
  H         7.8008007581        7.7814249246       -5.5004641188
  H         9.2821355126        9.2940274951       -6.4594359030
  H        10.9840791842       10.5665259762       -4.9606197124
  H        11.0402165381        9.8439945174       -2.4484788733
  C         7.3854370638        9.4576146078       -1.3764669991
  C         6.4343875561       10.1428765830       -0.7585218879
  H         5.6005864725       10.6870625080       -1.1784345276
  H         7.4657392181        9.6720034300       -2.4886707937
  C        11.4835969889        6.4710511141        3.0817818300
  C        10.9771151471        5.2049615819        3.4316584116
  C        10.9781304149        4.6987610581        4.7438767904
  C        11.6336404733        5.3447535449        5.8002252665
  C        12.1679666709        6.6264735982        5.4479604739
  C        12.0734018820        7.1983036426        4.1345562116
  H        12.5215422460        8.1570808061        3.8880362280
  H        12.7652787395        7.2354403844        6.1118894552
  H        11.9364542252        4.9727960132        6.7926891273
  H        10.6225382303        3.6482636664        4.7943789832
  H        10.5807454291        4.4820859074        2.6720079077
  C        13.6560025028        5.4905174733        1.7818073003
  C        14.6467259937        4.8095945983        1.1507161981
  C        14.8075012367        4.8831284253       -0.2731752039
  C        13.8441283854        5.5286846086       -1.0433641656
  H        13.9824929891        5.5257338038       -2.0817463759
  H        15.6720650008        4.4679288476       -0.8263661703
  H        15.4649505606        4.3235093978        1.7277000993
  H        13.6905411638        5.4840009442        2.8237832127
  C        11.7053029920        6.3130205170       -2.7073779095
  C        10.9522613857        5.2322182256       -3.2156995619
  C        11.2214586924        4.7309930105       -4.5404763628
  C        12.1682463336        5.3625084447       -5.3436767453
  C        12.8130982959        6.5138839046       -4.8572021590
  C        12.5906556743        7.0054355786       -3.5997951709
  H        13.1302808500        7.9434104306       -3.1405168862
  H        13.5344031717        6.9681258932       -5.4909628798
  H        12.3170332700        4.9403623073       -6.3668396072
  H        10.6585344691        3.9440862568       -5.0116556285
  H        10.2161561275        4.6657250397       -2.5956563747
  C        17.8699555257        7.3984551363        1.4621218815
  C        16.7506277346        7.9990906646        2.1804713963
  C        15.6191025798        8.5293123779        1.5064545985
  C        14.3969459614        9.0224324414        2.0864672187
  C        13.3043809460        9.4953347060        1.3464419622
  C        16.7540555077        8.1711561811        3.7248501774
  C        17.6373172706        9.1511224072        4.2557553279
  C        17.6028614312        9.5650591617        5.5981617721
  C        16.6901728897        8.9178906962        6.4552941603
  C        15.8595761931        7.9561179692        5.9992347264
  C        15.8708918158        7.5389740532        4.6464183593
  H        14.2425153630        9.0362969893        3.1820797267
  H        12.3531800408        9.7759674208        1.8301864491
  H        18.4532066983        9.3890328514        3.5479855427
  H        18.3112999560       10.1818272527        6.0951210724
  H        16.6522304820        9.1237327942        7.5424498870
  H        15.3703587713        7.2817556433        6.6771231671
  H        15.1900923864        6.6806271918        4.4400831802
  C        17.8277303110        7.4139777614       -0.1332583048
  C        18.8732845598        6.7852675354       -0.8326801564
  C        19.9844934858        6.1876145404       -0.1645139876
  C        19.9514484774        6.0670557917        1.2935632786
  C        18.9083565089        6.5963145048        2.1146010666
  C        15.6681781199        8.5209749918        0.0620162720
  C        16.7566103132        8.0494509145       -0.7567317336
  C        16.6969003608        8.5348881664       -2.1927331415
  C        17.5111006427        9.6248727182       -2.4985927575
  C        17.7333792435       10.1518053225       -3.7880047406
  C        16.9824207190        9.5554328501       -4.7957775975
  C        16.1133792798        8.4767050992       -4.5771507638
  C        16.0004190136        7.8983189764       -3.2763703200
  H        15.4213274893        6.9895234134       -3.0530923396
  H        15.4128519952        8.1080414957       -5.3983619955
  H        17.0858024213        9.9903558077       -5.7605270172
  H        18.4702298525       10.9355352718       -3.9756549571
  H        18.2383353378        9.8653775140       -1.7310029248
  C        14.5983717042        9.0998508776       -0.6520529344
  C        13.4289164321        9.5869205300       -0.0405777547
  H        12.6384012567        9.9859887606       -0.7236236782
  H        14.5982940553        9.1135327047       -1.7670134186
  C        18.7896460310        6.0990644424        3.5646528334
  C        17.9917360838        5.0508206277        3.9708859072
  C        18.0527089601        4.5125152820        5.2412125276
  C        18.9117741458        5.0934683950        6.1804746266
  C        19.5662541989        6.2957410286        5.8763154007
  C        19.6083445290        6.6443807718        4.5231873513
  H        20.1338539366        7.5834837335        4.2453934065
  H        20.1660254213        6.8425443693        6.6159535935
  H        19.0359094050        4.7158734264        7.1962959029
  H        17.4690540269        3.6331221156        5.5227035210
  H        17.2673833227        4.5453055558        3.3286418910
  C        20.9971926404        5.2180091655        1.9069916599
  C        21.8895522622        4.5437374585        1.1427472012
  C        21.8455710798        4.6641653294       -0.2576604204
  C        20.9042712408        5.4378242660       -0.9199567527
  H        20.8335624922        5.5011878337       -2.0245484831
  H        22.5295821431        4.0350393583       -0.8490131952
  H        22.6244650429        3.9919819725        1.6741492883
  H        21.0382925791        4.9834055912        2.9712713428
  C        18.7452520599        6.5090722982       -2.2978809752
  C        17.8541287507        5.5180839397       -2.6420821192
  C        17.8730983252        5.0120044072       -3.9770372293
  C        18.7242888584        5.5250456728       -4.9372207174
  C        19.5180677004        6.6320710541       -4.5550535780
  C        19.5699844345        7.0552396880       -3.2420187509
  H        20.3135664590        7.7927777879       -2.9198383572
  H        20.0070306432        7.2268280626       -5.3288506239
  H        18.7779067489        5.1472450101       -5.9286272930
  H        17.2970270598        4.1282610829       -4.2393538478
  H        17.1911694483        4.9701732025       -1.9494624618
