140

  C         8.1317482286        8.5800713619        1.4241607874
  C         7.0762645730        9.2545827300        2.1093014688
  C         5.9778956031        9.7822216295        1.3944229133
  C         4.8241440975       10.3211783387        2.0480154944
  C         3.8245963462       11.0116932432        1.3801930756
  C         7.1657077183        9.6295738557        3.5618565135
  C         7.9227817952       10.6780987999        4.1415277167
  C         7.9915789920       10.8976650451        5.5127198030
  C         7.2729816923       10.1239907507        6.3570304931
  C         6.3534082250        9.1404937038        5.8440832636
  C         6.3574046604        8.8561467809        4.4776062447
  H         4.7580044010       10.3086092364        3.1259556911
  H         2.9068749703       11.4250743978        1.9005492241
  H         8.5397318536       11.3391703081        3.5051989187
  H         8.7516149491       11.6301783891        5.8222445041
  H         7.4220414710       10.1837210274        7.4675969820
  H         5.6588730240        8.5916040991        6.5055846519
  H         5.7664364187        7.9966968848        4.1150118807
  C         8.1142615858        8.5720024370       -0.0536933200
  C         9.1244337011        7.7884661776       -0.7306361527
  C        10.1416728317        7.1714092787        0.0107143594
  C        10.2497323788        7.2531936224        1.4318736585
  C         9.2207762447        7.9403824554        2.1406916806
  C         5.9297914340        9.7700298164       -0.0593591753
  C         7.0617995306        9.2468379413       -0.7165748972
  C         7.2148261017        9.5455927081       -2.1373426874
  C         7.8453057927       10.7191029636       -2.5809759075
  C         7.6772811677       11.1219646348       -3.9132707958
  C         6.9634506705       10.3488742206       -4.8829064443
  C         6.3716420698        9.1110505113       -4.4528877883
  C         6.4992955203        8.7878683562       -3.0996904408
  H         6.0133798229        7.9392288822       -2.6211556361
  H         5.9159563236        8.4928450872       -5.2361260121
  H         7.0086786922       10.6797920706       -5.9049127882
  H         8.1883667795       12.0600991231       -4.1642258955
  H         8.3640738269       11.4056236457       -1.8751692416
  C         4.8857668972       10.5120074247       -0.7312892070
  C         3.8958986623       11.1191259471       -0.0143171502
  H         3.1766335039       11.6762810650       -0.6003593641
  H         4.8137000734       10.5187775587       -1.8002305187
  C         9.1342503876        7.5751937324        3.6023348154
  C         8.1853909169        6.5220867676        3.9312528710
  C         8.0990329295        6.0096079388        5.2392203573
  C         8.9566097803        6.4427999379        6.2560642277
  C         9.7806158730        7.5500180743        5.9481706293
  C         9.8647084392        8.0907280305        4.6412962983
  H        10.5176703266        8.9378707958        4.5785219152
  H        10.5847019653        7.8883978981        6.6356644484
  H         8.8475288513        5.9128534667        7.1882324008
  H         7.3621714729        5.1987572655        5.3761705879
  H         7.7030217269        6.0494472795        3.0513362353
  C        11.2331183941        6.4520289464        2.1123536564
  C        12.1592368709        5.6649192307        1.4386363580
  C        12.1646896924        5.7057674247        0.0083782766
  C        11.1900409528        6.4223082301       -0.6375697395
  H        11.1761431745        6.4695801966       -1.7358570489
  H        12.9341757361        5.1911858724       -0.5913644329
  H        12.9965830918        5.1472509459        1.9804271519
  H        11.3737503182        6.3036333334        3.1921290100
  C         9.1307218041        7.5964391444       -2.2509566767
  C         8.3195794039        6.4916692693       -2.6696020449
  C         8.2000438105        6.1932077666       -4.0535373688
  C         9.0239955788        6.9030805264       -4.9748974787
  C         9.8170542171        7.9959347182       -4.5464408307
  C         9.9613636342        8.2965507945       -3.1474281357
  H        10.4892218100        9.1913215232       -2.8268613157
  H        10.4824305308        8.4982867987       -5.2895894257
  H         8.9196534009        6.6630008300       -5.9932496163
  H         7.6420694922        5.3746468842       -4.3673871015
  H         7.6471221065        6.0988439269       -1.9633194363
  C        15.2891182063        8.4841893458        1.6086340681
  C        14.2615406103        9.1897847993        2.3722168382
  C        13.1385530176        9.6785787643        1.6728318282
  C        12.0565766032       10.2417435018        2.4278255120
  C        10.8712931306       10.5976607166        1.7980240670
  C        14.3402724238        9.5420057958        3.8471604437
  C        15.0905700451       10.6018853054        4.3753349330
  C        15.1801143605       10.9330564849        5.7544141145
  C        14.2825712814       10.2335315551        6.5636328310
  C        13.4283634064        9.1990671811        6.0671612094
  C        13.4953976948        8.8484770293        4.7494425296
  H        12.2488196283       10.4761586765        3.4567088060
  H        10.1209038017       11.0184441678        2.4494656798
  H        15.5935224702       11.2199577362        3.6689634803
  H        15.8449592311       11.7674481242        6.0493433120
  H        14.1203978313       10.4191565040        7.6526966610
  H        12.6716024445        8.7136442378        6.6502140488
  H        12.8670372289        7.9834956369        4.3881096943
  C        15.2845392373        8.5022452368        0.0956808846
  C        16.3580117647        7.8382028260       -0.6688639868
  C        17.4317786817        7.3061788471        0.0794335089
  C        17.4977548045        7.2713027672        1.5291958743
  C        16.3833929706        7.8167297282        2.2543103314
  C        13.0409170856        9.5838512231        0.1990404833
  C        14.1421815148        9.1215178593       -0.5603525473
  C        14.2433270235        9.5091934458       -1.9876781368
  C        15.0553308819       10.5160849434       -2.3402983006
  C        15.0748272003       11.0185664487       -3.6646140519
  C        14.1723822354       10.6832835615       -4.5811678751
  C        13.2483911690        9.6652308591       -4.2214511047
  C        13.2833900148        9.0318924121       -2.9244537007
  H        12.5624760126        8.3742645636       -2.4881453914
  H        12.4327893339        9.3340881432       -4.8860758626
  H        14.3596958598       11.0313143889       -5.6724618831
  H        15.8820156459       11.7087529847       -3.9247511396
  H        15.7379158657       10.9279673193       -1.5865506194
  C        11.8044840181        9.9533331749       -0.3460480919
  C        10.7355611777       10.4550614210        0.3916887858
  H         9.7607357774       10.7118294486       -0.0292898129
  H        11.7054933923        9.9001249848       -1.4337388684
  C        16.2992948226        7.5025741248        3.7505420529
  C        15.4503503837        6.4148780740        4.0560038474
  C        15.4224672103        5.8871332135        5.3063718264
  C        16.1260761325        6.4872853575        6.3408696596
  C        16.8862734614        7.6618140973        6.1351110583
  C        17.0362032747        8.0692685415        4.8253184149
  H        17.8511775727        8.8138915183        4.6011733166
  H        17.5524721748        8.0001959538        6.9784967549
  H        16.0419922464        6.0648044495        7.3816064451
  H        14.8814781863        4.9239083596        5.4490276725
  H        14.8091715513        5.9545353835        3.2786976480
  C        18.6264441416        6.7041942190        2.1115238683
  C        19.5727665878        6.0377495800        1.3587056178
  C        19.4693498283        5.9226180709       -0.0427994215
  C        18.3873095925        6.5231881770       -0.6223138695
  H        18.1618589238        6.3286140704       -1.6882257505
  H        20.1831392859        5.3558256964       -0.5547705893
  H        20.4149854878        5.6000970292        1.9196281003
  H        18.7547890246        6.6648314219        3.2144909449
  C        16.2000650818        7.5592385169       -2.0539970298
  C        15.2856828073        6.5494544647       -2.4413830347
  C        15.1703567098        6.0891899735       -3.7145599017
  C        15.9684182243        6.7074909948       -4.7427586987
  C        16.8806098072        7.6948294198       -4.4056951690
  C        16.9492055410        8.1239135906       -3.0384206236
  H        17.6486724789        8.8803542518       -2.7834058078
  H        17.6254230507        8.1099193144       -5.1377822822
  H        15.9822334564        6.3039932879       -5.7367476990
  H        14.5340006799        5.3140368621       -4.0469225319
  H        14.6719524130        6.1279653633       -1.6581747635
