140

  C        11.3114444235        6.6248526713        0.5202816554
  C        10.2510799554        7.3020754025        1.1603384059
  C         9.0873076581        7.6726302649        0.3934651140
  C         7.9678903915        8.3177714769        1.0382050650
  C         6.9101600505        8.8030457828        0.3215855642
  C        10.2477531378        7.5983332457        2.6138374899
  C        10.8639290965        8.7536627810        3.0077010896
  C        10.9042035043        9.1587921024        4.3176001393
  C        10.1028338531        8.5198895736        5.3137599161
  C         9.5681746071        7.2983352384        4.9016476129
  C         9.5536937331        6.8849574871        3.5802443236
  H         7.8578749578        8.2561782154        2.1355484665
  H         6.0375461622        9.1576727590        0.8819184942
  H        11.2006199292        9.3110717629        2.1082531373
  H        11.5307079089       10.0766429951        4.6043760590
  H        10.1193768578        8.9982681523        6.2733157027
  H         8.9439969998        6.7483102057        5.5688361124
  H         9.0261458629        5.9537022095        3.3814220338
  C        11.2820771612        6.4773344498       -0.9389050242
  C        12.4674713819        5.8972830165       -1.6020432977
  C        13.5638301112        5.3893756471       -0.8672907768
  C        13.5457377416        5.4702685586        0.5626195583
  C        12.3604842951        6.0097035178        1.2404356734
  C         9.0613642069        7.5453391800       -1.0022104054
  C        10.2277006349        7.1015500633       -1.7170096549
  C        10.2543035009        7.2618349306       -3.1661333031
  C        10.7919635634        8.4513569918       -3.7126815265
  C        10.7428054663        8.6818897423       -5.1015816825
  C         9.9032812120        7.8182419049       -5.9246363537
  C         9.2269293505        6.8341859218       -5.2999035799
  C         9.4277267698        6.4333863654       -3.9690144108
  H         8.8129768242        5.5478490140       -3.6093232625
  H         8.6089201155        6.2499981800       -6.0522491026
  H         9.8913534392        7.9460315632       -6.9697954168
  H        11.2571445725        9.6080636764       -5.5087573336
  H        11.2443830789        9.1956105923       -3.0616273091
  C         7.9894185081        8.1568600597       -1.7512514340
  C         6.9111576614        8.8102145116       -1.1384073420
  H         6.1492419565        9.3526204213       -1.7486050187
  H         7.9310775935        8.1696905972       -2.8363878113
  C        12.2723980026        5.6110648271        2.7151892951
  C        11.6657977344        4.4030535900        2.9894251421
  C        11.8248312942        3.8162556510        4.2565907491
  C        12.6071697387        4.3746139864        5.2249745467
  C        13.1062046541        5.6437926505        5.0329757565
  C        12.9236159447        6.2990457898        3.7806111628
  H        13.2532451850        7.3107346066        3.6773867910
  H        13.6500961401        6.1714974553        5.7856354094
  H        12.7510757021        3.8951233066        6.1958207796
  H        11.2490600327        2.9352335125        4.4994357673
  H        11.0423543744        3.8327008349        2.3272787338
  C        14.5771226757        4.9449008989        1.3112586514
  C        15.7371888457        4.3462980665        0.7770371691
  C        15.6901878570        4.1309195774       -0.6784445015
  C        14.6906014242        4.6847876870       -1.4444902683
  H        14.7112518051        4.4796181458       -2.4847054875
  H        16.5874782341        3.6549150544       -1.0570972648
  H        16.6086708834        4.0068805775        1.4246952591
  H        14.6869351474        5.1699402100        2.3490716362
  C        12.4106956806        5.6015881344       -3.0816176992
  C        11.7229624764        4.4470428300       -3.4835258242
  C        11.8387520533        4.0993251684       -4.8357868179
  C        12.6084156614        4.8114214401       -5.7559748244
  C        13.2495732620        6.0054198161       -5.2847913054
  C        13.1547335625        6.3820679573       -3.9255873937
  H        13.7348816603        7.2918562848       -3.6054406773
  H        13.8180821785        6.4651416248       -6.1044918893
  H        12.8213428326        4.4027854700       -6.7338684134
  H        11.3027249332        3.2684105188       -5.1855466271
  H        11.2599227165        3.9520647728       -2.6531795572
  C        18.6386307567        6.6694295620        0.5224641935
  C        17.5245097474        7.2858344420        1.1631131196
  C        16.4036768666        7.8472156503        0.4429428577
  C        15.3121311484        8.4618263120        1.1656048594
  C        14.2303431075        8.9506630700        0.3883632653
  C        17.6215419211        7.6368853452        2.6682791541
  C        18.5131960467        8.6345826318        3.0478512726
  C        18.6454569993        9.0276328763        4.3933071921
  C        17.8526782762        8.3826624600        5.3389613870
  C        16.8787746607        7.3894161845        4.9551603031
  C        16.7753795761        7.0397010591        3.5940074670
  H        15.3469209795        8.4850525134        2.2300752022
  H        13.2628637468        9.2741292307        0.8550784788
  H        19.2256261205        9.0272926309        2.3020604441
  H        19.3405385220        9.8325783050        4.6773932470
  H        17.9979133485        8.5858090240        6.4197600971
  H        16.1133527580        6.9513678673        5.6262433012
  H        16.0164448145        6.3016026438        3.3478881866
  C        18.5854844347        6.5295229187       -0.9671574907
  C        19.4567844631        5.6917215255       -1.7129133478
  C        20.5882374456        5.1335199867       -1.0854913277
  C        20.6571627706        5.2708593415        0.3735349051
  C        19.6764169812        5.9379184908        1.1779392812
  C        16.4316599300        7.8330439931       -1.0119801042
  C        17.5742427514        7.2561390004       -1.6846957029
  C        17.7021384493        7.6705810639       -3.0818020875
  C        18.6391973611        8.6177338665       -3.4603469596
  C        18.7504090819        9.0460877862       -4.7930893201
  C        17.8648526776        8.5956268121       -5.7799261566
  C        16.7884856914        7.7494679403       -5.3413844404
  C        16.7618520541        7.3013346902       -4.0585114347
  H        16.0570395297        6.4954884866       -3.8756941619
  H        15.9306875402        7.5821677025       -5.9655070917
  H        17.9378087956        8.9625309215       -6.7974223716
  H        19.5753489126        9.6733778156       -5.1138405918
  H        19.2309911249        8.9600771677       -2.6214301196
  C        15.3868724687        8.4981114012       -1.6918989695
  C        14.3342635109        9.0244029684       -1.0343391222
  H        13.5492228931        9.6423429350       -1.4938290583
  H        15.4163677612        8.5964132166       -2.7592441688
  C        19.7065067152        5.6797220567        2.5979830693
  C        19.0658393076        4.4259432817        2.9089365560
  C        18.9958383474        3.9526549083        4.2540060542
  C        19.6114600864        4.6846287614        5.3117310758
  C        20.3695684769        5.7892715598        4.9852607165
  C        20.3435498906        6.3533153496        3.6545806470
  H        20.9560245813        7.2053087379        3.4390246899
  H        20.9248266805        6.3592831765        5.7190414076
  H        19.5919389497        4.1726594246        6.3364747424
  H        18.3845117953        3.0195533302        4.4060801194
  H        18.5929534468        3.8921561636        2.1277041108
  C        21.7962377112        4.5786850715        1.0225587898
  C        22.6975121361        3.8234212507        0.2969558258
  C        22.6264764377        3.7391635147       -1.0887484127
  C        21.5554066279        4.3205836032       -1.7875575321
  H        21.4901304502        4.1754617204       -2.8888906389
  H        23.4616669158        3.2098939481       -1.5419378225
  H        23.5689538276        3.3094229643        0.7449583647
  H        22.0364241404        4.8175808491        2.0844966016
  C        19.2783344028        5.3630908800       -3.1603658646
  C        18.2989360515        4.4211826763       -3.6010739969
  C        18.3296595831        3.9475214341       -4.8709521704
  C        19.1555615120        4.5191724806       -5.8550410531
  C        20.0703528641        5.4707876237       -5.4244402464
  C        20.1555312605        5.8302497971       -4.1303835047
  H        20.9532367629        6.4543501251       -3.8557132725
  H        20.7423517655        5.9507352644       -6.2007944914
  H        19.1807446623        4.2155121187       -6.8984875254
  H        17.6925332039        3.0667066816       -5.1370481588
  H        17.5682377190        3.9851654630       -2.9047865916
