140

  C        10.9361268154        7.3158643205        1.6863184009
  C         9.9083819210        8.1674563077        2.2170515325
  C         8.9300308021        8.6756155743        1.4102568014
  C         7.7151660866        9.2170348842        2.0306088384
  C         6.8400915762       10.0127285198        1.3097625465
  C        10.0244867748        8.5236442855        3.6798118228
  C        10.7538594920        9.7030587839        3.9317097145
  C        10.7492904527       10.2227048508        5.1952220767
  C         9.9986679691        9.6213012146        6.2378438229
  C         9.3689637315        8.4231012477        6.0266359382
  C         9.3691856388        7.8763829716        4.7368230931
  H         7.4998220310        9.0226916805        3.0288487833
  H         5.9728022710       10.4162837335        1.8543932434
  H        11.1472084141       10.1365450881        2.9940182209
  H        11.2275442995       11.1415502222        5.5358222189
  H         9.9589041764       10.1247628771        7.2391685692
  H         8.8371867212        7.8374040039        6.8077145148
  H         8.8133265177        6.9677052222        4.5727625897
  C        11.0128393212        7.2598128545        0.2022415680
  C        12.0648131871        6.5245150368       -0.3618456136
  C        13.0603879113        5.9398090313        0.4039511293
  C        12.9677580333        5.8791403892        1.8335805811
  C        11.8675797158        6.5269798896        2.5087143608
  C         9.0851143315        8.6826568040       -0.0268165442
  C        10.1532367658        8.0699209011       -0.5958523326
  C        10.4458245015        8.4472936899       -2.0476861084
  C        11.3472164077        9.4424149258       -2.3159927992
  C        11.5979810954        9.9636317681       -3.5893030204
  C        10.7647534761        9.4844110171       -4.6414100707
  C         9.7091458467        8.5401168909       -4.3669875775
  C         9.6160899495        8.0052816005       -3.0488744253
  H         8.8307445698        7.2334278254       -2.8791265902
  H         9.1107307693        8.1590953024       -5.2091781895
  H        10.9939474403        9.7669584152       -5.6319102351
  H        12.4268655997       10.5928710067       -3.7847750923
  H        11.9920722564        9.7235567470       -1.4780692101
  C         8.2102501760        9.5440320863       -0.7506037673
  C         7.1602853762       10.1881269974       -0.1619913154
  H         6.4656398276       10.8176906036       -0.6603952437
  H         8.3223846857        9.7340541524       -1.7747217751
  C        11.6999229234        6.2607443618        4.0080040511
  C        10.8134377881        5.2313981807        4.3484632375
  C        10.6239122600        4.7339170773        5.6748011995
  C        11.5289401385        5.1926582732        6.6855804319
  C        12.4612562680        6.1742521947        6.2992001454
  C        12.4897350792        6.7529788790        5.0319218123
  H        13.2246600828        7.5861976531        4.8757945175
  H        13.1771509360        6.4858680048        7.0380880140
  H        11.6178181466        4.8234461252        7.7127048265
  H         9.7568531810        4.1260973051        5.8750793697
  H        10.2444158804        4.8310745699        3.4802366031
  C        13.9512662705        5.0729199192        2.5414388771
  C        15.0843867255        4.6111457672        1.9624196083
  C        15.2028190393        4.6472248601        0.5567324531
  C        14.2180357198        5.2165514909       -0.1619544167
  H        14.2848489378        5.2754160730       -1.2557250205
  H        16.0883438768        4.2396472203        0.0372505379
  H        15.8173712182        4.1048892548        2.5544005838
  H        13.7075088353        4.8810037702        3.5812762590
  C        12.1096519873        6.2429162323       -1.7482138977
  C        11.2403255089        5.2126395555       -2.2792328706
  C        11.2191693280        4.9694848960       -3.6476667966
  C        12.1265106934        5.5296744905       -4.5746618294
  C        13.0519794106        6.4235740372       -4.0492978282
  C        13.0483940463        6.7864504646       -2.6309109703
  H        13.7325897349        7.4802596659       -2.2844679272
  H        13.7703055234        6.8598735278       -4.7105101132
  H        12.0996725796        5.2113939414       -5.6182152205
  H        10.4219780329        4.3408180202       -4.0115955747
  H        10.6546850682        4.5503106030       -1.6741169355
  C        18.1632153002        7.4004439132        1.5980608365
  C        17.0346277446        8.0688405540        2.2548695335
  C        16.0004165069        8.5901934353        1.4536893764
  C        14.8360523400        9.0605549479        2.0301440180
  C        13.8982417977        9.7117721359        1.2777033467
  C        16.9772840539        8.2966203244        3.6451851231
  C        17.8517513938        9.2435883980        4.2122257681
  C        17.7380421933        9.7510425382        5.5202554635
  C        16.7047048857        9.1979214352        6.3338344907
  C        15.9167397753        8.1933130214        5.8435230815
  C        16.0696127854        7.6951452688        4.5022196936
  H        14.6876996034        8.8207179844        3.0602690039
  H        13.0136210723       10.2284382773        1.7189098386
  H        18.6850393055        9.5358035582        3.5363922869
  H        18.3829959203       10.5074707770        5.9671970248
  H        16.5776751315        9.5211172925        7.3677445591
  H        15.1853472716        7.6861266486        6.4844644819
  H        15.5438860896        6.8021576511        4.1698459749
  C        18.2315637499        7.3796334049        0.0940551042
  C        19.2433448275        6.6622367092       -0.5957261503
  C        20.4111848121        6.2462028908        0.1677319548
  C        20.4004864251        6.2731368287        1.6048360448
  C        19.2736454141        6.7637872895        2.2653190056
  C        16.1156143620        8.6512848804        0.0592575215
  C        17.1707616340        8.0131814119       -0.6694366039
  C        17.2973109394        8.4231206737       -2.1485283460
  C        18.0678853342        9.5550873353       -2.4814101954
  C        18.3044440247        9.9689812892       -3.7968582320
  C        17.6478575254        9.3431441198       -4.8464080862
  C        16.7776544187        8.3135642898       -4.5368870728
  C        16.5505481435        7.8339141125       -3.2243344925
  H        15.8473445223        7.0799958636       -3.0293672711
  H        16.2067599061        7.7661297405       -5.3082193927
  H        17.7343117257        9.6249333906       -5.9199358443
  H        19.0675035761       10.7310736041       -3.9879960655
  H        18.6701968923       10.0033940587       -1.6877145574
  C        15.1616090734        9.3691762344       -0.7192735332
  C        14.0531194295        9.8626888489       -0.0796729168
  H        13.2885762116       10.3708026610       -0.5841495249
  H        15.2550913210        9.4505073674       -1.7604709553
  C        19.1599236524        6.3671131106        3.7097678994
  C        18.3054926771        5.3133127704        4.0831246536
  C        18.0785246021        5.0527254793        5.4120726284
  C        18.8330801168        5.6494756864        6.4088853592
  C        19.8243588538        6.5706168809        6.0604641114
  C        19.9552088278        6.9614380757        4.7293933998
  H        20.6155517272        7.7891681107        4.4453104232
  H        20.5365140773        6.9198053643        6.8267222941
  H        18.5585888272        5.4094160382        7.4217568987
  H        17.3161997026        4.3730254115        5.7562064669
  H        17.8028630615        4.7775292321        3.3150387923
  C        21.3902139466        5.5623334183        2.3441788000
  C        22.3807050887        4.8314377515        1.6551822071
  C        22.4811383455        4.9114616802        0.2590897087
  C        21.4783181807        5.5855675777       -0.4516723252
  H        21.5492361468        5.6143966473       -1.5079141038
  H        23.1873695722        4.2679801270       -0.2239557113
  H        23.0410283045        4.1329282467        2.1340658552
  H        21.4560211342        5.5915088438        3.4172273619
  C        19.2444258514        6.2761903584       -2.0017446853
  C        18.4231032331        5.2265605496       -2.5082299169
  C        18.5062577712        4.8907190942       -3.8429078037
  C        19.3754454107        5.5459282526       -4.7551298662
  C        20.1637124436        6.5967228100       -4.2242663452
  C        19.9673071688        7.0322234658       -2.9271589472
  H        20.4698024712        7.9880793114       -2.5896657009
  H        20.8225579520        7.2523787906       -4.8328565030
  H        19.5187810869        5.1705037244       -5.7308508034
  H        17.9627842894        4.0222582645       -4.1383771239
  H        17.8794026877        4.6295547758       -1.7750983890
