140

  C         0.5405359234        1.2988504092       14.7382068533
  C         1.5359166838        2.0887181282       15.4535318300
  C         2.6120380433        2.5846988058       14.6325096393
  C         3.7242229800        3.2547160002       15.3068437889
  C         4.8242431303        3.7572365133       14.5539685507
  C         1.5380182955        2.4894149822       16.9240860234
  C         0.8394172360        3.6427469580       17.3604213686
  C         0.9252862932        4.0116388120       18.7188351640
  C         1.8933954623        3.5267662749       19.6404290804
  C         2.5837711922        2.3924412177       19.1581505990
  C         2.4083303806        1.9119815887       17.8614311753
  H         3.6896112419        3.4291790984       16.3867562729
  H         5.6667757070        4.2229963780       15.0648384795
  H         0.1527051576        4.2258389354       16.7509956347
  H         0.3369444612        4.8099977045       19.1149222702
  H         1.9248565045        3.8421218041       20.7159617195
  H         3.3119045273        1.9568772100       19.7619571542
  H         3.0328156475        1.0709995146       17.5892785904
  C         0.4806755501        1.2760007187       13.2387916922
  C        -0.5823100578        0.6075963171       12.5524454697
  C        -1.6601639365        0.0326070851       13.2506840560
  C        -1.4996477366       -0.0211632975       14.7695630491
  C        -0.4665436779        0.6313460978       15.4387451965
  C         2.6630487370        2.5148785853       13.2012368534
  C         1.5349638681        1.9444137227       12.5407979567
  C         1.4988978183        2.2366214571       10.9670181100
  C         0.8833945456        3.3910044424       10.3995599325
  C         1.0830702969        3.6506570664        9.0858944728
  C         1.7326188567        2.8158698024        8.1960336435
  C         2.3545348704        1.7049458527        8.7182700530
  C         2.3094841651        1.4448302467       10.1232423928
  H         2.9296511895        0.6279496485       10.5369441669
  H         2.8459159300        1.0505447686        8.0267929070
  H         1.7780736800        3.0794627360        7.1395279513
  H         0.6105731283        4.5655478299        8.7108573460
  H         0.2244187510        4.0240811665       10.9553319872
  C         3.7335314240        3.0425154730       12.5049437699
  C         4.8275569997        3.5529971108       13.1072861363
  H         5.6801101886        3.7601142826       12.5103391143
  H         3.7737867832        2.8475943625       11.4745083949
  C        -0.4542375555        0.3912104428       16.9179928723
  C         0.1873379791       -0.7538136274       17.3802904623
  C         0.2605534370       -1.0226914096       18.7903338937
  C        -0.5330842596       -0.2999202618       19.6116262693
  C        -1.3098234806        0.8025528164       19.1313249396
  C        -1.1933329631        1.1753716773       17.7845534710
  H        -1.6803305187        2.0918814125       17.5072625381
  H        -1.9772394969        1.3490393356       19.7733447450
  H        -0.4894664886       -0.5080226082       20.6514008132
  H         0.9056322097       -1.8535416367       19.0156384318
  H         0.6972612667       -1.3422180121       16.6811396370
  C        -2.5618288236       -0.7556424639       15.4472774202
  C        -3.5733456439       -1.4218436124       14.7791211806
  C        -3.6655275614       -1.4234681380       13.3627906307
  C        -2.7598940527       -0.6948946943       12.6898128662
  H        -2.9405688664       -0.5918886237       11.6605344272
  H        -4.2959646693       -2.0456320999       12.7929994518
  H        -4.2929756158       -2.0345126618       15.3659475220
  H        -2.4963172044       -0.8803244097       16.5484190864
  C        -0.5411419279        0.1525005958       11.1010690097
  C         0.3092479804       -0.8926667944       10.8179390806
  C         0.4335097420       -1.5319522681        9.6334860975
  C        -0.2064524010       -0.9052142459        8.6045844286
  C        -1.0107076660        0.2246868896        8.7297089689
  C        -1.2435246041        0.7674834292        9.9950740868
  H        -1.7786681218        1.6399717826       10.1877215312
  H        -1.5791127175        0.6155285561        7.8901943821
  H        -0.1259549463       -1.2912477854        7.6004125311
  H         0.9874575544       -2.4811822243        9.5175271663
  H         0.7850030722       -1.3293191607       11.6879322308
  C         7.8476999801        1.2446302321       14.8642124702
  C         8.9292179245        1.9086578169       15.5595024787
  C         9.9345485647        2.5180826903       14.8156370078
  C        11.0939977381        3.1369296295       15.4117289340
  C        12.0680052870        3.7995592438       14.6782811314
  C         8.8753695567        2.1619245450       17.0286200066
  C         8.1642506675        3.3304093627       17.3033425018
  C         8.2315784438        3.8881882755       18.6128594828
  C         9.0114863790        3.1866031221       19.5348895688
  C         9.5499428654        1.9648156142       19.2857642704
  C         9.5837554769        1.4360162618       18.0251137399
  H        11.1964962515        2.9708510986       16.4808911693
  H        13.0445252189        4.1337091113       15.1439586664
  H         7.5973395676        3.8597351376       16.4614238389
  H         7.7659181441        4.8142141998       18.8047518921
  H         9.1356222348        3.6077789221       20.5443086153
  H        10.0904144786        1.4861771418       20.0740252030
  H        10.1337754573        0.4478631109       17.7735137507
  C         7.8755601280        1.1645409003       13.4396668035
  C         6.8145154145        0.4754972825       12.7538875144
  C         5.6832683275       -0.0426230376       13.4569578599
  C         5.6621856015        0.0341751505       14.9137020782
  C         6.7663777201        0.5963435175       15.5601170130
  C         9.8811118698        2.5466419298       13.3220871343
  C         8.8186072040        1.9614841384       12.6385097371
  C         8.7952985495        2.0264261540       11.1553373368
  C         8.1190341597        3.1154633043       10.6317900563
  C         8.2729403405        3.5029710628        9.3105715793
  C         9.1685431499        2.8410839764        8.5099354968
  C         9.8925640967        1.7539048742        9.0045741694
  C         9.7714307138        1.3666443651       10.3323976071
  H        10.3382783518        0.5748907940       10.7309356068
  H        10.6088753509        1.1849404005        8.3907186564
  H         9.4190223985        3.1290636115        7.4619366574
  H         7.7139355090        4.3248996015        8.8048681597
  H         7.5850245362        3.7989674971       11.2950524991
  C        10.9083521964        3.2952217286       12.6309394227
  C        11.9247124896        3.8828007743       13.1946775367
  H        12.5287787407        4.4728844987       12.5122352311
  H        10.6884411292        3.4617212691       11.5484765231
  C         6.8289168665        0.2720915851       17.0405094588
  C         7.3496224046       -0.9179304775       17.4966421226
  C         7.2364539690       -1.2735370108       18.8913039508
  C         6.6248354651       -0.3756577875       19.7401709962
  C         6.1024503677        0.8130921682       19.2591271354
  C         6.1841340409        1.1640045110       17.9135037055
  H         5.8390477331        2.1127203205       17.5436753061
  H         5.6881731212        1.4543017799       20.1325849215
  H         6.7141753711       -0.5618429149       20.7977180699
  H         7.7826883260       -2.1063397715       19.3323622552
  H         7.8492876921       -1.5717915521       16.7499819834
  C         4.6187232978       -0.5933076588       15.6109091386
  C         3.5823866675       -1.2241352185       14.9179727967
  C         3.6215323884       -1.4473946390       13.4812921730
  C         4.6538065749       -0.7611601722       12.7630401318
  H         4.7446862243       -0.9122319500       11.7417884208
  H         2.8043735605       -1.8796940420       12.9687162845
  H         2.7790674735       -1.6059003610       15.5312032109
  H         4.5279649764       -0.6821508096       16.6767167900
  C         6.8710104472        0.2245025402       11.3143510294
  C         7.4240523473       -0.9722384991       10.9096981769
  C         7.2099114583       -1.4333400037        9.6066120270
  C         6.5986263205       -0.6630017064        8.6595245543
  C         6.0831789986        0.5884929087        9.0150509083
  C         6.1383163648        0.9668225895       10.3363126527
  H         5.6543814296        1.8724128407       10.7374453726
  H         5.5602601514        1.1810376541        8.3159004646
  H         6.5948028036       -1.0984260497        7.6691171152
  H         7.5873853785       -2.3946058738        9.2480481514
  H         8.0737183677       -1.5541933136       11.6011319765
