140

  C         1.3605269123        0.8550061990       14.8058685850
  C         2.4088902800        1.5668932696       15.5222212288
  C         3.5265482944        2.1402649421       14.8430812466
  C         4.6064671399        2.7038429015       15.5335266811
  C         5.6739489771        3.3296442545       14.8183476538
  C         2.2454612102        1.8791926286       16.9466895837
  C         1.4731240369        3.0673639624       17.3434548255
  C         1.4699030451        3.5302354900       18.6677545009
  C         2.3317478551        2.9648875111       19.5923337211
  C         3.1024423731        1.8457609350       19.2263861648
  C         3.0449074537        1.3169373253       17.9405581660
  H         4.5885367613        2.6978778395       16.6013204420
  H         6.4790792339        3.8061374577       15.3595978302
  H         0.9391131767        3.6001347900       16.5354634266
  H         1.0984321390        4.5260653661       18.8836267552
  H         2.4499662631        3.4254067475       20.5431537600
  H         3.7559798755        1.4135407730       19.9470231749
  H         3.6088032294        0.4638663109       17.6862465284
  C         1.4051664833        0.9045395839       13.3079606156
  C         0.3422339292        0.2954491701       12.5842709091
  C        -0.7959896586       -0.3076610069       13.2394343412
  C        -0.7891860961       -0.3977569329       14.6398557681
  C         0.2275407080        0.1876575432       15.4068993678
  C         3.4658379557        2.1756965140       13.3606193499
  C         2.4442959801        1.5985068822       12.6588969486
  C         2.4599338842        2.0476482278       11.1856520528
  C         1.5420594267        3.0988235830       10.8331965942
  C         1.6466433487        3.6827047492        9.5849366330
  C         2.3741962679        3.0470401812        8.5705378479
  C         3.3146436947        1.9847682763        8.8661183453
  C         3.3055116185        1.4794420527       10.2219466743
  H         4.0497380407        0.7767761053       10.5800817692
  H         4.0233026605        1.6592380615        8.1222662564
  H         2.1896146425        3.4686646092        7.5655568374
  H         0.9106147396        4.4332120330        9.3049452125
  H         0.8961939348        3.5383745239       11.5583658408
  C         4.5169013829        2.8957566067       12.7309003309
  C         5.6134110643        3.3297578411       13.3737711845
  H         6.2159039906        4.0383442376       12.8603129951
  H         4.5550711754        2.9659155365       11.6574381700
  C         0.2838105626        0.0715244815       16.8799555020
  C         1.1710233544       -0.9082813513       17.4180399427
  C         1.1550799162       -1.2853747862       18.8106101681
  C         0.2899371771       -0.7198940913       19.7203553069
  C        -0.5965247677        0.2091132854       19.1066729943
  C        -0.6138343415        0.5903931259       17.7650162143
  H        -1.3571224922        1.4243430276       17.6213316481
  H        -1.3680584440        0.7137909168       19.6977447310
  H         0.3630733900       -0.8657253376       20.7768337378
  H         1.9884242739       -1.8991494390       19.3139179927
  H         1.8266184398       -1.4098600284       16.7482004258
  C        -1.8642562155       -1.0770323938       15.3248823663
  C        -2.9095239067       -1.5599779306       14.6072799367
  C        -2.9079847652       -1.4706516436       13.2047072803
  C        -1.8669820890       -0.9111944582       12.4996267476
  H        -2.1125349009       -0.9357268783       11.4425898941
  H        -3.7908917532       -1.8367829364       12.6779300353
  H        -3.7663822733       -1.9437442045       15.1187587614
  H        -1.8170251381       -1.1214128689       16.4230821325
  C         0.3356699969        0.0855194450       11.0576571055
  C         1.0966684213       -0.9507959574       10.6382950355
  C         1.1172774332       -1.4717806880        9.3536232580
  C         0.2495760841       -0.9256378366        8.4277942045
  C        -0.5007320092        0.1985365526        8.7651394616
  C        -0.4335046583        0.6737269687       10.0562880862
  H        -1.0266824021        1.5926636413       10.1829699574
  H        -1.2573029906        0.7163517774        8.1343595259
  H         0.2051228790       -1.4163958192        7.5008882434
  H         1.6659398179       -2.3695720718        9.0935962731
  H         1.7906735193       -1.4314286773       11.3763589319
  C         8.6163279132        0.9889644522       15.1575421466
  C         9.6314142416        1.7035353229       15.8337001411
  C        10.7301391055        2.2267978774       15.1392903915
  C        11.9151154926        2.7779252708       15.7874132093
  C        13.0102443989        3.2042789328       15.1425510178
  C         9.4845387453        2.0405629194       17.2578969342
  C         8.4786597081        2.9485730114       17.7078288032
  C         8.5072878697        3.4974526869       18.9711569893
  C         9.5166327439        3.0768751817       19.8722571220
  C        10.4044982807        2.0711847556       19.4770827377
  C        10.3801645701        1.5141704703       18.2145146851
  H        11.9136458473        2.7964422671       16.9100723829
  H        13.9355309387        3.6626812335       15.5140107363
  H         7.7494293512        3.2302186068       16.9646276891
  H         7.8485496087        4.2981267658       19.0939920411
  H         9.6022825368        3.5735581956       20.8757580492
  H        11.1936888429        1.8315232076       20.2783182948
  H        11.1857109601        0.8182024691       17.9646294114
  C         8.6437546309        0.9804511607       13.6866012582
  C         7.6027788765        0.2223516759       13.0217142767
  C         6.5030818730       -0.3116042973       13.6903967238
  C         6.5247326508       -0.3364688112       15.0991092629
  C         7.6125345631        0.2780465140       15.8958462594
  C        10.7703771529        2.2145167439       13.6236950818
  C         9.6827973022        1.5980678625       12.9170920243
  C         9.5092715213        2.0045876998       11.5098461547
  C         8.7094203313        3.1096094006       11.2461443397
  C         8.6523580671        3.6447479562        9.9436289850
  C         9.4837852889        3.2413699403        8.8937607239
  C        10.3083264911        2.1571996686        9.1670228158
  C        10.3953516077        1.6416646705       10.5091296476
  H        11.0452743098        0.8418327577       10.5963737345
  H        10.8443388469        1.5621117782        8.4050469259
  H         9.3163525254        3.6437584426        7.9036580931
  H         7.9682832775        4.4250024399        9.6105727622
  H         7.9178916155        3.4356496719       11.9189111340
  C        11.8899123850        2.8324029065       12.9869613334
  C        12.9746859718        3.3219631071       13.7131293329
  H        13.7559338097        3.8168932929       13.1292651133
  H        11.8966495490        2.9498150617       11.8899370698
  C         7.5689350593       -0.1865582171       17.3790000020
  C         8.3783501782       -1.1723676596       17.9670764277
  C         8.1690242579       -1.5780598733       19.3721537775
  C         7.2841236083       -0.7505131604       20.0764916799
  C         6.4753685589        0.2102324749       19.4691858542
  C         6.5580703547        0.5016704821       18.0932776651
  H         5.9523005913        1.2004489797       17.5183581844
  H         5.8982473310        0.7308587529       20.1516862611
  H         7.2273638337       -0.8241671031       21.1650023813
  H         8.7622630581       -2.3884233902       19.7586444580
  H         9.0472172634       -1.7919942124       17.3222358378
  C         5.5046169377       -1.0910133902       15.7912102122
  C         4.4595499267       -1.6696554806       15.0862522145
  C         4.5177891909       -1.7112608142       13.7171909980
  C         5.4925080238       -1.0556454134       12.9867276135
  H         5.5779713377       -1.0768446541       11.9423866115
  H         3.7594508771       -2.1441209217       13.1280879242
  H         3.5470684427       -2.1328826947       15.4905985419
  H         5.4807704668       -1.2293074463       16.8539392548
  C         7.6930630443       -0.2143907534       11.5774855040
  C         8.5572796363       -1.2571740855       11.1384514646
  C         8.7299362721       -1.5934596967        9.7991211442
  C         7.8930710542       -0.9940016059        8.8571975496
  C         6.9046108963       -0.1149178510        9.2550926275
  C         6.9147220421        0.3947229017       10.5469351414
  H         6.3331095867        1.2853026771       10.8957822281
  H         6.1624783498        0.2293525128        8.5460345045
  H         7.9378331053       -1.2566293786        7.8139347947
  H         9.5564838642       -2.2693255296        9.5631314087
  H         9.1788283552       -1.7765059767       11.8690334998
