140

  C        10.3314439129        7.1276554317        1.0487236856
  C         9.2765694929        7.8382174441        1.7467904090
  C         8.2428713996        8.5090873751        0.9314974186
  C         7.0759632323        9.1679783135        1.5148606259
  C         6.2075660596        9.8406148667        0.6797804424
  C         9.2693567091        8.2466195923        3.1975179455
  C        10.2457525628        9.2786487310        3.4796297835
  C        10.2906225364        9.8024822860        4.7877531818
  C         9.4164352320        9.2949258189        5.7147956100
  C         8.5761663654        8.2054443349        5.4569891592
  C         8.5288785497        7.5852743824        4.1730099075
  H         6.9463050603        9.2861786090        2.5966219384
  H         5.3198877669       10.2430075550        1.1196946900
  H        10.6778667052        9.8919382732        2.6236937594
  H        11.0163566893       10.5415559783        5.1276822695
  H         9.3785608556        9.6886478208        6.6967261257
  H         7.9654630316        7.9031895675        6.3080376658
  H         7.8958512337        6.7491425881        3.9788984474
  C        10.4327458772        7.0941837502       -0.3876755417
  C        11.6007537253        6.5359935371       -1.0659885676
  C        12.6144418791        5.9642142436       -0.2611492512
  C        12.5560086905        5.9464801010        1.1826656526
  C        11.4074485739        6.5193177386        1.7454123473
  C         8.3572833807        8.5245493707       -0.5853458433
  C         9.4717995266        7.9234903831       -1.1500168128
  C         9.6808592252        8.3168669213       -2.6191273925
  C        10.2520382285        9.5334660506       -3.0236710814
  C        10.2105095623       10.0181391213       -4.3083010803
  C         9.4833517130        9.3391251073       -5.2350162011
  C         8.7956172711        8.1850890512       -4.9255081259
  C         8.8253608328        7.7113246594       -3.6103985376
  H         8.1340094658        6.8712551982       -3.3613929401
  H         8.1718336790        7.6868216012       -5.6910062287
  H         9.3543124280        9.6422928887       -6.2599584057
  H        10.7266913816       10.9230052366       -4.4656608272
  H        10.7204966775       10.1242128237       -2.2387881379
  C         7.3541015476        9.2850340478       -1.3147484959
  C         6.2281844146        9.7714789176       -0.7246353313
  H         5.4252784479       10.3643142292       -1.1049681383
  H         7.4992058078        9.3004199143       -2.3609930878
  C        11.3529481650        6.3194954468        3.3136559840
  C        10.3559050997        5.4038755696        3.7469816187
  C        10.2525776163        5.1313723967        5.0900369889
  C        11.4189114162        5.5051983797        5.8952706023
  C        12.3241477723        6.4287861822        5.4703469845
  C        12.2783671689        6.8327682999        4.1379988025
  H        13.0109492433        7.5882129017        3.8251568854
  H        12.9888231020        6.7561960312        6.2583162507
  H        11.3313091627        5.2531793231        6.9235621898
  H         9.4695666658        4.5090007212        5.5260867365
  H         9.6521659049        5.0228285454        2.9738253827
  C        13.6977514445        5.3093022828        1.9160940573
  C        14.7191671762        4.8354250878        1.2447581638
  C        14.7967740077        4.8282599441       -0.1538517166
  C        13.7857423744        5.3718158319       -0.8616142804
  H        13.8085070508        5.4021589528       -1.9486081636
  H        15.6190294076        4.3210996640       -0.6122733849
  H        15.5231989270        4.3891083423        1.8235841129
  H        13.7057742223        5.2897145224        2.9528306202
  C        11.5406530301        6.2081104175       -2.4848106389
  C        10.7273306622        5.1337857448       -2.9924769293
  C        10.8215860494        4.5722256320       -4.2254603507
  C        11.7712186615        5.1947545718       -5.1520414238
  C        12.5481351840        6.2445164898       -4.7292732629
  C        12.4988493527        6.7287782449       -3.3963363310
  H        13.2420122482        7.5377902403       -3.2037776299
  H        13.3741544337        6.6536308853       -5.3149619449
  H        11.9320092534        4.7241078070       -6.1027867890
  H        10.2115822756        3.7155367216       -4.6286325967
  H        10.0927855969        4.6157986251       -2.2443288659
  C        17.6599011715        7.2859173684        1.4060070046
  C        16.6391070591        8.0616789657        2.1001623603
  C        15.5233942264        8.5617272676        1.3314094909
  C        14.4375997526        9.1838546265        2.0320338446
  C        13.3883064398        9.6106307483        1.2867714620
  C        16.7381458546        8.4457991830        3.6157693719
  C        17.5659996410        9.5691064664        3.8926945824
  C        17.5557141070       10.0510184639        5.2227175600
  C        16.6385498125        9.5662219561        6.1951619978
  C        15.7431220342        8.4715718632        5.8390459552
  C        15.8591662592        7.9038011383        4.5584148117
  H        14.4633991435        9.3202033072        3.0992517823
  H        12.5461475728       10.0875318334        1.7706985203
  H        18.2255132243        9.9232133756        3.1383394458
  H        18.3226773629       10.8201643368        5.3268199876
  H        16.5229868974       10.0288103501        7.1760392357
  H        15.1020164291        8.1247512561        6.6387589094
  H        15.2249580021        7.0756622543        4.2318478879
  C        17.6017184985        7.1725708845       -0.0743672872
  C        18.5743882086        6.4332163429       -0.7917885028
  C        19.6750636391        6.0102909697       -0.0621650938
  C        19.6564970971        5.9097266992        1.4165896296
  C        18.6665586457        6.5300212577        2.1368229876
  C        15.4365204702        8.5246513300       -0.0882312332
  C        16.5372353931        7.8871836945       -0.7362655088
  C        16.5615280870        8.2568296529       -2.1997024035
  C        17.0966792362        9.5468120396       -2.5561551406
  C        16.9748112791        9.9865033620       -3.8772038235
  C        16.4508099307        9.0893237092       -4.8433313943
  C        15.8669081419        7.8981920121       -4.4937800905
  C        15.9595451029        7.4083123808       -3.1489073015
  H        15.6827731676        6.4078394193       -2.9063532103
  H        15.2941417169        7.3222843351       -5.1648099295
  H        16.5157559485        9.4303488108       -5.8805845159
  H        17.3976292600       10.9471251169       -4.2922012279
  H        17.5032696461       10.1740576058       -1.7340319070
  C        14.4305177885        9.2218100412       -0.7857487022
  C        13.4123615220        9.7871922300       -0.0901811202
  H        12.6893648420       10.3845281863       -0.6003155158
  H        14.3998951012        9.3501441478       -1.8805568197
  C        18.6061196402        6.2807796648        3.6278280605
  C        17.8144699583        5.2107011269        4.0684094642
  C        17.7308378305        4.9059189300        5.4105028160
  C        18.4796853914        5.6924704085        6.3720653535
  C        19.4489680462        6.6180719581        5.8881285526
  C        19.4840665019        6.9609798909        4.5255377038
  H        20.1255680273        7.7797928866        4.2008578021
  H        20.2138253137        7.0295798764        6.5453035399
  H        18.3497149378        5.3625836733        7.4269019000
  H        17.1878093058        3.9785392269        5.6967433811
  H        17.2823000606        4.5424000471        3.3307188430
  C        20.6615845186        5.1568237041        2.0865837291
  C        21.7027316339        4.5288462859        1.4274529845
  C        21.7492622064        4.7282141448        0.0057746695
  C        20.8200701881        5.4062971324       -0.7228417648
  H        20.9393336307        5.5013613773       -1.7979646051
  H        22.5927995978        4.2842920673       -0.5221821701
  H        22.5097895048        3.9511190523        1.9552929632
  H        20.6579012924        5.2216611135        3.1636326045
  C        18.4603923722        5.9539890793       -2.2034683331
  C        17.6664551882        4.8484334951       -2.5515421359
  C        17.5699082147        4.3474143349       -3.8657730710
  C        18.3052259881        4.9948339158       -4.8762891558
  C        19.1432874851        6.0417364306       -4.5747715422
  C        19.0962132690        6.6012061198       -3.2992700846
  H        19.7699177930        7.4178109003       -2.9598614101
  H        19.8855049873        6.3327856873       -5.2881824044
  H        18.3503404740        4.6258573533       -5.8958297901
  H        16.8781723976        3.5595495566       -4.2264597946
  H        17.1202338879        4.3806737290       -1.7347525405
