140

  C         4.2655241814       -0.1391736435       15.3932239743
  C         5.3428709324        0.6149327731       15.9726086692
  C         6.3554860196        1.0962466981       15.1630710969
  C         7.5159373786        1.7589613598       15.7269369461
  C         8.5259317035        2.2439986931       14.9569596524
  C         5.3022251814        1.0273717957       17.3844897109
  C         4.3243219218        1.9216907997       17.7689828800
  C         4.2095236476        2.3814976088       19.1617320861
  C         5.0517496268        1.8929977025       20.0641694439
  C         5.9800328242        0.8287964892       19.7029364300
  C         6.0941709135        0.4056676733       18.3808273062
  H         7.7835674806        1.7637500293       16.7654437864
  H         9.3992424117        2.5377661588       15.5334757305
  H         3.6257597049        2.2612595670       17.0332209921
  H         3.4551558362        3.0993222613       19.4256891793
  H         5.1945687744        2.2829489529       21.0687417546
  H         6.4423702788        0.4003082435       20.5465445908
  H         6.7657771759       -0.4097705853       18.1894204450
  C         4.1484606409       -0.1669274117       13.9127642329
  C         3.0881722938       -0.9470476205       13.3620538438
  C         2.0588814690       -1.3711927637       14.1825135818
  C         2.2056935300       -1.3705187654       15.5697472628
  C         3.3291330324       -0.8729290749       16.1988104444
  C         6.2934751738        1.1035310666       13.7198073477
  C         5.1754937441        0.5076184450       13.0879169064
  C         4.9993289235        0.7886975783       11.6418541597
  C         4.3012970728        1.9218900979       11.1942190876
  C         4.3071729934        2.4655018496        9.9026345731
  C         5.0565013756        1.7929270560        8.9047881555
  C         5.8282133444        0.6311124186        9.2825151709
  C         5.7740824679        0.1822984976       10.6264409241
  H         6.4089036207       -0.6951837380       10.8463135918
  H         6.4324561529        0.1190563914        8.5213620028
  H         5.0945144474        2.1918742063        7.8831767738
  H         3.7276758461        3.3651339730        9.7331336518
  H         3.7257831570        2.5187719425       11.9352701973
  C         7.3488900945        1.6471738487       12.9501534697
  C         8.4769177668        2.1906705645       13.5516830704
  H         9.3703995862        2.4252347990       12.9794870679
  H         7.3470541306        1.4472866615       11.8836462641
  C         3.4401592151       -1.1351261894       17.6862124949
  C         4.2773375198       -2.1510400211       18.1529615932
  C         4.1878898954       -2.5964503389       19.5210456935
  C         3.3807813032       -1.8585254303       20.4347491620
  C         2.6757479815       -0.7312752907       19.9798118493
  C         2.6324519314       -0.4391332179       18.5888264101
  H         1.9608060977        0.2880774621       18.2071295069
  H         2.0939698907       -0.1247379350       20.6500634920
  H         3.3062720919       -2.2312481443       21.4357642211
  H         4.7179142175       -3.5631149497       19.8252522201
  H         4.9103526535       -2.7321742652       17.5188902442
  C         1.1952597359       -2.0445750140       16.3336337588
  C         0.0653599169       -2.5231107815       15.7573672776
  C        -0.1982771226       -2.3799979097       14.4010940634
  C         0.7964056629       -1.8094784457       13.6163294833
  H         0.5908625358       -1.6882011359       12.5914754051
  H        -1.1099629499       -2.6264543596       13.8822815614
  H        -0.7530410792       -2.9974865331       16.3938067077
  H         1.4269653222       -2.1593422017       17.3844207140
  C         3.1132817822       -1.2480759550       11.9210975955
  C         3.7976995573       -2.3666642797       11.4785029236
  C         3.9061155158       -2.7284554004       10.1076739264
  C         3.1781724854       -1.9573356237        9.1647464998
  C         2.4745094476       -0.8737005269        9.5775051460
  C         2.3478694811       -0.5528763145       10.9401521667
  H         1.7522739911        0.3582568744       11.1149598627
  H         1.9021658684       -0.3233798516        8.8561583138
  H         3.1846835295       -2.3144918250        8.1101765691
  H         4.4033415920       -3.6426161746        9.7770507448
  H         4.2220674495       -3.0095952071       12.2243698547
  C        11.3729096851       -0.2658747232       15.5065188930
  C        12.3938832651        0.5555475548       16.1058559212
  C        13.3903663763        1.1746449655       15.3438845023
  C        14.3842044687        2.0226169571       16.0532797930
  C        15.3671551885        2.5519991780       15.3441151839
  C        12.4043553168        0.8797379181       17.5173903751
  C        11.5273400330        1.9141941659       17.9125141004
  C        11.5338338328        2.3858836169       19.2268584386
  C        12.5251049102        1.8809765151       20.1333215829
  C        13.4001723977        0.8623734517       19.7212341318
  C        13.3226949520        0.3399505018       18.4463152446
  H        14.4401249447        2.0160989091       17.1008601040
  H        16.2192226282        2.9707743860       15.8677091618
  H        10.7787090350        2.3068534369       17.2603425759
  H        10.9245147083        3.1886306008       19.5584539265
  H        12.6147896099        2.2189561908       21.1832618088
  H        14.0668980917        0.4778729812       20.4832551141
  H        14.0884722252       -0.4157234452       18.2196791688
  C        11.4023487005       -0.3213366612       13.9899806727
  C        10.4261607640       -1.1158511295       13.3423544066
  C         9.3312019694       -1.5109279832       14.1210631429
  C         9.4199380487       -1.5819581600       15.5098286882
  C        10.4600500539       -0.9866019003       16.2503678594
  C        13.4457791148        1.1134534810       13.8981041260
  C        12.4052055954        0.3763504610       13.2068163725
  C        12.2864388526        0.6837791114       11.7168413630
  C        11.5143270972        1.8390466430       11.4464894805
  C        11.4055934935        2.3851108762       10.1800955682
  C        12.1456667678        1.8632508801        9.1036745332
  C        12.8287037599        0.6951461651        9.3286987343
  C        12.8497031079        0.1022538598       10.6199827381
  H        13.4168246653       -0.8097842532       10.8046410906
  H        13.4504572756        0.3165837669        8.5979504816
  H        12.1632225825        2.4179291661        8.1543493122
  H        10.7500299142        3.2774559669       10.0487873903
  H        10.9955505292        2.3381418377       12.2134334999
  C        14.5018059594        1.8049846798       13.2287193563
  C        15.3921190619        2.5130607960       13.9320197349
  H        16.2142513015        2.9346478855       13.3689650503
  H        14.3838274503        1.6568234308       12.1303903776
  C        10.5239068041       -1.2903254715       17.7244667251
  C        11.2857830803       -2.3687883658       18.1389515099
  C        11.1194553452       -2.9088465132       19.4122594534
  C        10.2898660298       -2.2673092095       20.3549716146
  C         9.5706357220       -1.1581061139       19.9597879826
  C         9.6517825043       -0.6714405719       18.6196386883
  H         9.0110101717        0.1957332686       18.4775020511
  H         8.9594030466       -0.6176649163       20.6615273267
  H        10.1695222378       -2.7036134463       21.3692835397
  H        11.5057166353       -3.9086893829       19.7029628269
  H        11.9284234495       -2.8052253312       17.3698600321
  C         8.3567538307       -2.2471008909       16.2037890207
  C         7.2082153854       -2.7531717994       15.6335831539
  C         7.0711311888       -2.6421460738       14.2259049550
  C         8.1411523690       -2.1043201012       13.5202062690
  H         8.0184085431       -2.0897765822       12.4441035262
  H         6.0949408861       -2.8066926406       13.7852311918
  H         6.4191611133       -3.1398458631       16.2622394399
  H         8.2956217019       -2.2439091684       17.2914813639
  C        10.4419954362       -1.4036413831       11.8629060415
  C        11.1618688811       -2.4938476802       11.3053446530
  C        11.2581015319       -2.6417012445        9.8732622624
  C        10.5098465776       -1.7943249582        9.0242112740
  C         9.6378817543       -0.7201366101        9.6137443015
  C         9.7637321416       -0.5076941341       10.9962021918
  H         9.3193733890        0.4293885215       11.3530937398
  H         9.1068155299        0.0593613037        9.0956094253
  H        10.7437091651       -1.7551251972        7.9769548199
  H        11.8818885405       -3.4316456456        9.4977651496
  H        11.7187098592       -3.1054999505       12.0006919093
