140

  C         3.9513859542       -0.1501647185       14.1265587108
  C         4.9981514986        0.5340682712       14.9012717668
  C         6.0969555863        1.1163527862       14.1997532632
  C         7.1764957427        1.6438069658       14.9662085113
  C         8.2371872088        2.2307620146       14.3261128209
  C         4.8664686595        0.7882071921       16.3873348512
  C         4.2133080697        1.9897818395       16.8113989302
  C         4.2598257166        2.5355373338       18.0725774070
  C         4.9372466093        1.8031841434       19.1256610389
  C         5.4313987351        0.5219715392       18.7429438290
  C         5.4415532082        0.0323970706       17.4273666571
  H         7.0545904698        1.5252876859       16.0543074840
  H         9.0390635859        2.5694377009       14.9746539414
  H         3.8612127466        2.6773441029       16.0617065497
  H         3.7311262827        3.4816141643       18.2461833501
  H         5.0862365146        2.0850447405       20.1870461146
  H         5.9643950683       -0.0868325180       19.5115224740
  H         5.7761985414       -0.9739052182       17.2714092785
  C         4.0313199451       -0.1999068404       12.5943710977
  C         3.0114075066       -0.8758885354       11.8786523231
  C         1.9240760376       -1.5289510254       12.5980191197
  C         1.7839133969       -1.3978743831       14.0711425925
  C         2.8098938072       -0.7946417917       14.7800774018
  C         6.1120339277        1.2165658429       12.7403677152
  C         5.1565158141        0.5378706819       11.9607842323
  C         4.9472636326        1.0164471514       10.5473272328
  C         4.4505361519        2.2821306110       10.3450066473
  C         4.3954694561        2.7648041046        9.0005902635
  C         4.7061966431        1.8888932444        7.9556301641
  C         5.2435944981        0.6016435675        8.2115354477
  C         5.4079712594        0.2344409933        9.5083007065
  H         5.7054212303       -0.7580740615        9.7861258387
  H         5.6904484292        0.1329322357        7.3737090224
  H         4.7207580735        2.2313548365        6.9335283062
  H         3.8968580209        3.7043429191        8.7741372772
  H         4.1750846118        2.8991941899       11.1794745687
  C         7.2400889908        1.8787926534       12.1632448102
  C         8.2805006233        2.4039745887       12.9111327842
  H         9.1050086720        2.8752339150       12.4030311180
  H         7.2208959113        1.7598495052       11.0769155870
  C         2.7564943711       -1.0402396698       16.3125139628
  C         3.4478596000       -2.1953108376       16.6808525186
  C         3.1555206558       -2.7970885195       17.9239726797
  C         2.4537006832       -2.0725038778       18.8489456217
  C         1.8016123423       -0.8924161222       18.5214061536
  C         1.8950587204       -0.3697340723       17.1950533710
  H         1.4008105215        0.4863105456       16.8018949082
  H         1.3246559765       -0.2653728010       19.2621718913
  H         2.3070644725       -2.3438334669       19.8564681095
  H         3.5515635693       -3.7596746765       18.1965002647
  H         4.0023651841       -2.6807696914       15.8579378698
  C         0.6950148871       -2.0980201286       14.6936926535
  C        -0.3258050393       -2.6109360836       13.9074228935
  C        -0.2562472713       -2.7159838165       12.5281874827
  C         0.8989484888       -2.2390151607       11.8952948694
  H         1.0274922759       -2.5093674684       10.8340234797
  H        -0.9964315077       -3.3301619181       11.9693377572
  H        -1.2006138533       -3.0307134188       14.4155057231
  H         0.5470150963       -2.1286332141       15.7995788271
  C         2.9890924213       -1.1878549449       10.4673109660
  C         3.7218484799       -2.3023937685       10.0384890200
  C         3.5522529805       -2.8176992590        8.7519138983
  C         2.6659085112       -2.1227904200        7.8948459347
  C         2.0614619122       -0.9081658724        8.2190288065
  C         2.1892846297       -0.4518235530        9.5681545421
  H         1.6590972370        0.4536006682        9.9277819071
  H         1.4472684438       -0.4635839577        7.4553867204
  H         2.6181338777       -2.5189236878        6.9463338538
  H         4.0275974477       -3.7033223201        8.3919348075
  H         4.4249860193       -2.8044173341       10.7366839962
  C        10.9316158085       -0.1975840276       14.3260348342
  C        11.9882536288        0.4524098042       14.9876616805
  C        13.0930049826        1.0249364778       14.1902383228
  C        14.1655195257        1.6216835706       14.9267075744
  C        15.2184639979        2.1763335586       14.2232049147
  C        12.0144685753        0.8013928220       16.4638604766
  C        11.1735353931        1.8116156804       16.9478106401
  C        11.1973219015        2.2156007889       18.3062154595
  C        12.0480852132        1.5469108239       19.1834608244
  C        12.7815698162        0.4569288806       18.7185322261
  C        12.7985141577        0.1170339862       17.3970873435
  H        14.2117265773        1.5078111022       16.0294537259
  H        16.0538260587        2.6240246234       14.7968562556
  H        10.5966512708        2.2672201453       16.1481781290
  H        10.4838622867        3.0030757093       18.5949653428
  H        12.1612170235        1.6853509362       20.2434597382
  H        13.2275752815       -0.1669187006       19.4720286587
  H        13.2381834915       -0.8346975622       17.1218452191
  C        10.9693024791       -0.2841368252       12.8303028870
  C         9.8915386860       -0.9179366147       12.1534645851
  C         8.8383727214       -1.5882637373       12.9054774202
  C         8.8933833025       -1.6169757509       14.3570517459
  C         9.9759145064       -0.9814566435       15.0370931284
  C        13.0677963046        1.0338553968       12.7901692553
  C        11.9664012756        0.4477736301       12.0692027540
  C        11.8503253381        0.8860313000       10.6445135327
  C        11.1622383873        2.0958739703       10.3675675132
  C        11.1716024007        2.6433114138        9.1126768235
  C        11.8550389765        1.9741940849        8.0872409729
  C        12.5651068885        0.7969837883        8.3515584876
  C        12.5768550323        0.2385671394        9.6211646991
  H        13.1444298973       -0.6831170908        9.8792735208
  H        13.3003710264        0.3844580961        7.5484293230
  H        11.7642616073        2.3179078667        7.1035834813
  H        10.6919325424        3.6377424555        8.9726080994
  H        10.6611024751        2.5923679840       11.1756407900
  C        14.1487056715        1.6532911758       12.1003785963
  C        15.2538944272        2.0752896073       12.8095749949
  H        16.0021102730        2.5341277832       12.1446542054
  H        14.1469115941        1.5697555723       11.0403914553
  C        10.1480063652       -1.4093840123       16.5053482284
  C        10.8156613421       -2.5486143973       16.9203949448
  C        10.6982416356       -3.0273613258       18.2140820209
  C         9.9078700156       -2.2378913567       19.0938789004
  C         9.1814052959       -1.0890177569       18.6759505502
  C         9.3875159174       -0.6200273769       17.3908166492
  H         8.7682307680        0.1734785293       16.9769851207
  H         8.4636148178       -0.6328836454       19.3276635088
  H         9.6652695490       -2.5955272374       20.0777967748
  H        11.1459014544       -3.9867848111       18.5379857332
  H        11.3796907357       -3.0965226513       16.1632950994
  C         7.8469605648       -2.3245794958       15.0936953366
  C         6.7707507290       -2.8841907029       14.4039206833
  C         6.7089132822       -2.7328411723       12.9415293841
  C         7.7011326809       -2.1504795195       12.2502185512
  H         7.5932148795       -2.1157380975       11.1685727799
  H         5.8333627644       -3.1696063548       12.4727673257
  H         5.9776304787       -3.3599691621       14.9319144635
  H         7.8784215675       -2.3327168317       16.1796721086
  C         9.8656337644       -1.2113095776       10.7287640589
  C        10.5759162946       -2.3190725836       10.2146160250
  C        10.4789580485       -2.4904212369        8.8028098701
  C         9.7783441101       -1.6199356424        7.9113739833
  C         9.1437027067       -0.5455789386        8.4851672394
  C         9.1990522578       -0.3582034010        9.8579535637
  H         8.6183406545        0.4785957452       10.2942172094
  H         8.5841375769        0.1705135550        7.8696650775
  H         9.7834036507       -1.8213575314        6.8012887539
  H        11.1172978362       -3.2841124265        8.4302405338
  H        11.1929046305       -2.9367794953       10.8247910372
