140

  C         4.1600032157       -0.2525888467       14.0568509879
  C         5.1103092482        0.5182012859       14.8346195412
  C         6.2826131768        1.1153197219       14.1835636594
  C         7.3222044715        1.8379735891       14.9138479833
  C         8.3711429311        2.4416980120       14.1753307594
  C         4.8810161001        0.8531371085       16.2679158719
  C         4.1641981595        2.0142488139       16.7191760429
  C         4.1964749401        2.4874863842       18.0159464357
  C         4.8656530991        1.7202951547       18.9452580262
  C         5.7141868697        0.6919295631       18.5496048484
  C         5.7615482790        0.2966214924       17.1891108181
  H         7.3180019283        1.9865491236       15.9793221590
  H         9.1980777418        2.9609865732       14.6810883418
  H         3.5470790720        2.6387180361       16.0354869840
  H         3.4372782797        3.2469555738       18.3493212573
  H         4.8345510717        1.9498385672       19.9985861453
  H         6.2339425031        0.1439059099       19.2845902401
  H         6.3899587550       -0.5720841099       16.9590723593
  C         4.2418113972       -0.2633001155       12.5488648336
  C         3.2361952712       -0.9268862051       11.7896147879
  C         2.1069567975       -1.4947585923       12.4880682301
  C         2.1006239380       -1.6070422629       13.9678084971
  C         3.1563831524       -1.0454941738       14.6961047811
  C         6.2990746471        1.0979638951       12.6950955536
  C         5.2033696247        0.5658823077       11.9352376426
  C         5.2078853361        0.8375612416       10.4341494815
  C         4.5049973342        1.9525927664        9.9579968104
  C         4.5253466568        2.2363930604        8.5709450154
  C         5.2245991050        1.4573113217        7.6683118833
  C         5.9442126608        0.3728600082        8.2012232656
  C         5.9650622027        0.0672557772        9.5612304321
  H         6.5561489239       -0.7654750219        9.9422671497
  H         6.6396861870       -0.1701715090        7.5834186914
  H         5.2332498550        1.6677633902        6.5833825810
  H         3.8164931686        2.9328454138        8.1030408017
  H         3.9905840056        2.7097631271       10.5930812140
  C         7.2668538835        1.8664304648       12.0571606474
  C         8.3190992625        2.4741481107       12.7150156776
  H         9.1560726482        2.9915455663       12.1865121498
  H         7.0832300105        1.9164936275       10.9976332926
  C         3.2013601421       -1.3495737038       16.1561954371
  C         4.1159934549       -2.3128821581       16.6449978248
  C         4.0450057451       -2.8249767423       17.9583340431
  C         3.1681619895       -2.2568898049       18.8429633316
  C         2.3507571590       -1.2396653629       18.4135235497
  C         2.3048692307       -0.8519784703       17.0841882413
  H         1.7344583583        0.0613125534       16.7761430584
  H         1.7943429566       -0.6797809661       19.1558098982
  H         3.2509821713       -2.6010213968       19.8439782617
  H         4.7688248950       -3.5960686129       18.2864360764
  H         4.7824130643       -2.8119181005       15.8912247554
  C         0.9990194530       -2.3830471290       14.5568969377
  C        -0.0538425513       -2.9195140156       13.8193372448
  C        -0.0643354874       -2.7369185630       12.4270807564
  C         1.0097673309       -2.0597854475       11.8069745737
  H         0.9835769994       -2.0948688851       10.7162504239
  H        -0.8218972146       -3.2257061513       11.8415202187
  H        -0.8501386027       -3.4253845858       14.3507568815
  H         0.9657157729       -2.3482131136       15.5878352945
  C         3.2538255867       -1.3779403157       10.3402082571
  C         3.8462625406       -2.6173019626       10.1433225886
  C         3.6256588353       -3.3460162709        8.9825065527
  C         2.8079860419       -2.7963462192        7.9562734608
  C         2.4323173103       -1.4851580130        8.0885264672
  C         2.5975865219       -0.7812051822        9.3073490787
  H         2.3119331459        0.2917922994        9.4770604403
  H         1.9254400009       -0.9568089744        7.2837922135
  H         2.5608762488       -3.3389415196        7.0745251118
  H         3.9637801019       -4.3822081089        8.7887757564
  H         4.3768789082       -3.0395252232       10.9618421681
  C        11.2367039974       -0.3256317231       14.1866759129
  C        12.2770283556        0.3521603106       14.8886706011
  C        13.4937195558        0.8447607488       14.2129168274
  C        14.5828546104        1.4477967395       14.9656628109
  C        15.6026072825        2.1045926158       14.2425866060
  C        12.2484386616        0.5511172871       16.2954308577
  C        11.4195411275        1.6236737299       16.7534754842
  C        11.5302585326        2.0471136582       18.1458434534
  C        12.2907363454        1.2921088820       19.0141661664
  C        13.0434064670        0.1769986078       18.5123035054
  C        13.0995480355       -0.1485176390       17.1771110554
  H        14.5378785288        1.6005601381       16.0437252460
  H        16.3990395357        2.4890313569       14.7958195841
  H        10.7480283784        2.0569983974       16.0272766136
  H        10.8444284266        2.8004044205       18.4924516962
  H        12.3488840515        1.4199416994       20.1016935258
  H        13.6544192019       -0.4105978692       19.1804275342
  H        13.5081493697       -1.1359252133       16.9040108871
  C        11.3264933268       -0.3809713863       12.7163780170
  C        10.3391216510       -1.0963356397       11.9621175713
  C         9.1142067314       -1.4649838117       12.5633374455
  C         9.0410052321       -1.5012935663       14.0041342024
  C        10.0565748981       -0.9487321870       14.8032793639
  C        13.4820560250        0.8541721405       12.8079208241
  C        12.4025424319        0.2458274924       12.0547978453
  C        12.3875798091        0.5584238947       10.6028049627
  C        11.5762823603        1.6042237208       10.1211325161
  C        11.5497284131        2.0119043600        8.7750574898
  C        12.3935700880        1.3715103460        7.8746524352
  C        13.1192902972        0.2908935455        8.3096754776
  C        13.1877164328       -0.0600127030        9.6485821935
  H        13.8693423500       -0.9008371337        9.9530796250
  H        13.5224640353       -0.4654284605        7.6986816512
  H        12.3962939605        1.6449626260        6.8126764608
  H        10.9367378390        2.8829353189        8.5210618040
  H        10.9576673304        2.1430205844       10.8173069806
  C        14.5593339168        1.4379937670       12.1158970591
  C        15.6043996355        2.0923913518       12.7934926708
  H        16.4192684886        2.5306730783       12.2421987400
  H        14.4634461346        1.3783359059       11.0369168072
  C         9.9895321618       -1.3268788462       16.2546932126
  C        10.7335511791       -2.3965070420       16.7191242280
  C        10.7270688795       -2.7288868381       18.1160624057
  C         9.9403745864       -2.0784259808       18.9890440417
  C         9.0925120829       -1.0557579739       18.5152137780
  C         9.0727492476       -0.6922239719       17.1827694253
  H         8.3795574616        0.0909343805       16.8382680226
  H         8.3974646149       -0.5306285480       19.1866241727
  H         9.9865226972       -2.2704957717       20.0544658189
  H        11.3263972910       -3.5047565374       18.5099236161
  H        11.4689318058       -2.9030979608       16.1077194105
  C         7.8483207668       -2.1689915124       14.5528813500
  C         6.9814571238       -2.8087295486       13.7465040347
  C         7.0102771150       -2.6372290702       12.3129073230
  C         8.0453505880       -1.9657153983       11.7307382593
  H         8.2304016383       -1.9673496187       10.6524859528
  H         6.2535700726       -3.1033630436       11.6960124460
  H         6.1625316008       -3.3991534759       14.2070334847
  H         7.6917329518       -2.1863287066       15.6046396835
  C        10.4407671365       -1.4201239248       10.4817563093
  C        11.2336627795       -2.5381075243       10.0799354506
  C        11.3100464468       -3.0406284409        8.8010449183
  C        10.6881134040       -2.3521558381        7.7903945307
  C         9.8916384111       -1.2265923780        8.0967161795
  C         9.6852490512       -0.7943520438        9.4402656607
  H         9.0971957771        0.0871468915        9.6606172353
  H         9.3436197565       -0.6237122381        7.4062124510
  H        10.8243064839       -2.6568619927        6.7235173058
  H        11.8922437456       -3.9273062102        8.5954508033
  H        11.6925503247       -3.1532472309       10.8923008575
