140

  C        10.8914662970        7.1730047149        1.1326237718
  C         9.8243261641        7.8547382146        1.8957619735
  C         8.7145414386        8.5379451475        1.1518967441
  C         7.7668035932        9.3531384938        1.7860172914
  C         6.7237534911        9.9206104758        1.0637072689
  C        10.0032913216        8.1388856389        3.3853257188
  C        10.8432026874        9.2381908146        3.8496322138
  C        10.6431204855        9.7635102911        5.1018354143
  C         9.6625018043        9.2332339703        5.9300743227
  C         9.0043643223        7.9949673040        5.5466270247
  C         9.1765085278        7.4691919967        4.2919789226
  H         7.8415744454        9.5707860116        2.8473919648
  H         6.0747017749       10.6586520858        1.4832508349
  H        11.5781135093        9.7745753568        3.2081799414
  H        11.2644605306       10.5323879467        5.5301897668
  H         9.5266898468        9.5120768997        6.9974835841
  H         8.5074366897        7.5255954957        6.3653290997
  H         8.6455027179        6.5823302702        3.8549790190
  C        10.8071552553        7.0769560782       -0.3082788144
  C        11.7790711442        6.3973204707       -1.0021255359
  C        12.9683137121        5.9725502957       -0.3092558134
  C        12.9943481583        5.9350398329        1.1346042047
  C        11.9866730246        6.6385676020        1.8420799972
  C         8.7578201660        8.4243911475       -0.2745337678
  C         9.7329989559        7.7183838555       -0.9679930862
  C         9.7081034444        7.9375911700       -2.4919931734
  C        10.3104818507        9.1378057244       -3.0029583449
  C        10.0745190389        9.5190658620       -4.3095429204
  C         9.3421246329        8.6414211583       -5.1697383633
  C         8.9076363392        7.4130680809       -4.7167194332
  C         9.0314079144        7.1408923007       -3.3390070981
  H         8.5555201352        6.2926083234       -2.9280853368
  H         8.1778461869        6.8460574935       -5.2549462446
  H         9.1320250656        8.8160346222       -6.2122677215
  H        10.4850075839       10.4141700852       -4.7391147090
  H        11.0081317212        9.6914298158       -2.4072146226
  C         7.6081393683        9.0237873487       -0.9375695946
  C         6.6495089650        9.7780825719       -0.3063301522
  H         5.7797915577       10.2530551363       -0.8025835795
  H         7.5426155132        8.8320245830       -1.9745691273
  C        12.0414720171        6.2873955953        3.3191375501
  C        11.3176844649        5.1227400148        3.6985751823
  C        11.2808546414        4.7108237534        5.0114087371
  C        12.0629751689        5.3528871915        5.9589315328
  C        12.8431465271        6.4357676048        5.6791877084
  C        12.7402803056        6.9991082926        4.3343135935
  H        13.3357339931        7.8633036039        4.0714843564
  H        13.4741654204        6.8282102435        6.4708910167
  H        12.1598926429        4.9344451768        6.9428360954
  H        10.6211013335        3.9213257753        5.3632492637
  H        10.6938979105        4.6684659107        2.9277957933
  C        14.1421812904        5.3662894458        1.7153100764
  C        15.2314627476        4.8268707735        1.0281296289
  C        15.2047158435        4.8594593669       -0.3693682153
  C        14.1239086405        5.4341285006       -0.9756876423
  H        14.0272685220        5.3511539908       -2.0366057343
  H        16.0914185894        4.4510252593       -0.8969395093
  H        16.0209814836        4.3650746331        1.6334368322
  H        14.1239598815        5.3084044470        2.8003190908
  C        11.7958184288        6.0830635831       -2.5100107015
  C        11.1425117628        4.8801857543       -2.8945397351
  C        11.1099836986        4.4747150498       -4.2757466997
  C        11.7848781441        5.2069936507       -5.2362582194
  C        12.5104453458        6.3887887867       -4.9027660313
  C        12.5214363095        6.7625332013       -3.5387320609
  H        13.2500482024        7.6282003562       -3.2821791883
  H        13.1234274880        6.7988432404       -5.6648198618
  H        11.7400234758        4.7155333934       -6.2839804471
  H        10.6744929866        3.5082413540       -4.4811487997
  H        10.6527540699        4.3117898136       -2.0757171096
  C        18.0496943694        7.2323663438        0.7316209593
  C        17.0468952451        7.9314619875        1.4454079836
  C        15.9136690693        8.5577813218        0.7518068804
  C        14.8328139175        9.1285547300        1.4575106276
  C        13.9353417627        9.8755919875        0.8018686108
  C        17.1532199726        8.2481830824        2.8999419048
  C        17.8907191993        9.3404170448        3.3221687009
  C        17.7922307130        9.7612336209        4.6791655665
  C        17.0819816685        9.0162147860        5.6885679302
  C        16.3003087519        7.9068754247        5.1900047363
  C        16.3376275043        7.6375531558        3.8260872762
  H        14.8326525251        9.0164586057        2.5420480426
  H        13.0249730492       10.1728987235        1.3292079483
  H        18.6437616009        9.7523130783        2.6394996665
  H        18.3136611383       10.6461399490        4.9715751107
  H        17.1518210862        9.2531840424        6.7664151885
  H        15.5577589474        7.3441914561        5.7411272580
  H        15.6838342554        6.8501304680        3.4138083024
  C        17.9474315477        7.2652561193       -0.7590349054
  C        18.9156736353        6.5088218344       -1.4959939708
  C        19.9602431353        5.8359618687       -0.8468246168
  C        20.1157960842        5.9735294540        0.6197308335
  C        19.1068082946        6.5854052255        1.3919938063
  C        15.8562731107        8.5991502336       -0.6807795075
  C        16.8835895933        8.0049418993       -1.3694965963
  C        16.9222490313        8.3057508174       -2.8382099220
  C        17.8413129512        9.2866577613       -3.3381077697
  C        17.6709630208        9.7471980412       -4.6133272289
  C        16.6782967456        9.2378938871       -5.4309365584
  C        15.8010823528        8.2899361195       -4.9613167173
  C        15.9283844716        7.7808860421       -3.6559967407
  H        15.2846526043        7.0339150403       -3.3173715557
  H        15.0630270877        7.8312887315       -5.6161151791
  H        16.5332931276        9.6188399913       -6.4229707696
  H        18.3167071986       10.5852335051       -4.8723582908
  H        18.6552508601        9.5580837604       -2.6779910294
  C        14.8770358277        9.4870569389       -1.3212668086
  C        13.9297879769       10.1024188281       -0.6250212679
  H        13.1648275558       10.7420741494       -1.0342634347
  H        14.9432670286        9.6324407803       -2.3890318560
  C        19.0594345101        6.2815936195        2.8634615922
  C        18.2627073944        5.2245807298        3.2742241168
  C        18.1120053134        4.8334939000        4.6052897895
  C        18.9278284868        5.4125708542        5.5498692904
  C        19.9564943180        6.2604739831        5.1541215532
  C        20.0903552342        6.7028291557        3.7932469781
  H        20.8722746776        7.4038772820        3.5229517331
  H        20.7890298643        6.5851313983        5.7653280486
  H        18.9240272796        5.0477595943        6.5737701869
  H        17.4468442246        4.0060497507        4.9081749465
  H        17.7360465115        4.5412280573        2.6233528280
  C        21.2938187445        5.4342051795        1.1976594082
  C        22.0939008134        4.4707648084        0.6025691596
  C        21.8665630030        4.2185015987       -0.7816660414
  C        20.8320078243        4.8767900927       -1.4489683021
  H        20.6820574675        4.6530513033       -2.4917971042
  H        22.4251528337        3.5139866170       -1.3833421257
  H        22.9366577150        4.0620013511        1.1438879372
  H        21.4791965005        5.6949683982        2.2265492193
  C        18.7108557102        6.2271691349       -2.9758014480
  C        17.8955406217        5.1577864078       -3.4318049929
  C        17.7996980092        4.7871015895       -4.7507806184
  C        18.6003001453        5.3955566085       -5.7422508328
  C        19.4220569242        6.4408211708       -5.3448921695
  C        19.4960346761        6.8071485368       -3.9740006314
  H        20.2902036877        7.5149572894       -3.7156485262
  H        20.2362003290        6.7423606755       -5.9415707988
  H        18.3989662732        5.0528467885       -6.7802154676
  H        17.1713114108        3.9239749985       -5.0385990244
  H        17.2604064125        4.6299306945       -2.6725863196
