140

  C         3.9761578672       -0.4814064560       14.2826216849
  C         5.0058955303        0.1843407629       15.0145627143
  C         6.1325572373        0.6894302021       14.3261960989
  C         7.2534950213        1.3769063190       15.0252190442
  C         8.3218647744        1.8446022326       14.2837734649
  C         4.9610319064        0.4582818151       16.4624816406
  C         4.1777801720        1.5689748354       16.8408955243
  C         4.2213340769        2.0246267436       18.1971293091
  C         5.1300648786        1.4525948323       19.0973117001
  C         5.7680979032        0.2675068149       18.7459273671
  C         5.6731854442       -0.2581624183       17.4123831547
  H         7.2224374096        1.6223401116       16.1010886339
  H         9.0817368676        2.4617677499       14.8158343768
  H         3.5999233256        2.0655149069       16.0236087803
  H         3.6492122969        2.9165527468       18.4688269850
  H         5.2204316272        1.8130606187       20.1166239197
  H         6.4421673342       -0.2064600307       19.4114645994
  H         6.1578450480       -1.1796946495       17.1470089706
  C         3.9641137042       -0.4222309932       12.7824780335
  C         2.9447472695       -1.1819471025       12.0638631043
  C         1.8598796796       -1.7545977509       12.7566167491
  C         1.8866367544       -1.8010777195       14.2031423235
  C         3.0081924070       -1.2911874929       14.9561286952
  C         6.1641111904        0.6906444041       12.8297723884
  C         5.1126762844        0.0740672326       12.1120451627
  C         5.1273469689        0.3376360160       10.5778371644
  C         4.4007976833        1.4856766948       10.1949799856
  C         4.5916885099        2.0874444249        8.9435398462
  C         5.5299231988        1.5135772138        8.1250733948
  C         6.2336663808        0.3576108677        8.4513447020
  C         5.9783869011       -0.2732549068        9.6705587480
  H         6.6138386721       -1.0944192435        9.9926624471
  H         6.9502523070        0.0136198207        7.7199603033
  H         5.7700598825        1.9822615397        7.1659068254
  H         4.0126074533        2.9506337442        8.6186168553
  H         3.7175950285        1.8233361046       11.0577054146
  C         7.3285588635        1.1936469207       12.1740996376
  C         8.3475111962        1.7785540426       12.8858355039
  H         9.2363397353        2.1415081329       12.3060399237
  H         7.3650011790        0.9248315461       11.1382468583
  C         2.9958346517       -1.6111418145       16.4858462342
  C         3.7585299254       -2.6912152044       17.0427392121
  C         3.8066437167       -2.9098933744       18.4500833506
  C         2.9432885454       -2.2007936101       19.2939968278
  C         2.1097247777       -1.1723108563       18.7814037975
  C         2.1478944712       -0.8784096380       17.4189680240
  H         1.5474115610       -0.0739625199       17.0422595417
  H         1.4713646170       -0.7107802098       19.5101397742
  H         2.8928076340       -2.4787559347       20.3509874327
  H         4.5245522635       -3.6871914960       18.8088809248
  H         4.3684982246       -3.3268412778       16.4455932437
  C         0.9738779405       -2.5746272913       14.9505676148
  C        -0.0756529466       -3.2028337598       14.3145499662
  C        -0.1301468487       -3.1514181203       12.8612150304
  C         0.7782282750       -2.4334861547       12.1149237642
  H         0.7877810676       -2.4368954487       11.0533655258
  H        -0.8467151169       -3.7765410035       12.3954892645
  H        -0.6935139082       -4.0276557260       14.7740397273
  H         1.1790719282       -2.8159080128       16.0250849978
  C         2.9967588124       -1.5030364759       10.5622185743
  C         3.6858766515       -2.6842084312       10.1392740199
  C         3.6844008456       -3.0356372913        8.7716910814
  C         3.0201858065       -2.2075526091        7.8593134088
  C         2.3455475126       -1.0285033255        8.2749027546
  C         2.2664334770       -0.7124725173        9.6762569374
  H         1.6787398300        0.1431307091        9.9715165355
  H         1.7729475054       -0.3677879456        7.5356226743
  H         3.1928766642       -2.3539568891        6.8235443848
  H         4.2103845322       -3.9513045831        8.4407823648
  H         4.0762881768       -3.3050279502       10.9206500323
  C        11.3513746796       -0.4372860056       14.2175436888
  C        12.4341062386        0.1641657010       14.9515691816
  C        13.5593857649        0.7005823554       14.2674276863
  C        14.5874944271        1.4162329095       14.9330782710
  C        15.5896879151        2.0634074918       14.3199719151
  C        12.3352566050        0.5617050555       16.4098362711
  C        11.4355721354        1.5296531734       16.7956929747
  C        11.3805517746        1.9923415187       18.1057812512
  C        12.2825801603        1.4740107979       19.0559463049
  C        13.2266650777        0.4854742347       18.6558195197
  C        13.2250943421       -0.0226498521       17.3592640503
  H        14.5294477907        1.4207488134       15.9996392445
  H        16.3759281499        2.6026277878       14.8489823702
  H        10.8920802837        2.0234269468       15.9938546543
  H        10.7300040461        2.8261964627       18.2788920350
  H        12.1899880736        1.9056603904       20.0651420008
  H        13.9982336780        0.1781495327       19.3833207211
  H        13.8902594665       -0.8852068840       17.1931043811
  C        11.4503132088       -0.5304281218       12.7238689970
  C        10.3916092842       -1.1191089239       11.9718585688
  C         9.3056213242       -1.7160272036       12.6479673875
  C         9.2655040283       -1.7415607802       14.1187880686
  C        10.3369713126       -1.2107974008       14.8931411821
  C        13.5801453750        0.6843280872       12.8289745537
  C        12.4931517565        0.1799496155       12.0554315276
  C        12.3873609272        0.6042064619       10.6301112156
  C        11.4371274265        1.6502331537       10.3445848140
  C        11.4431122265        2.2607348678        9.1110363594
  C        12.4766659886        1.9980418188        8.1984290234
  C        13.3873875360        0.9666010672        8.4426989145
  C        13.2517720395        0.2057352214        9.6174585414
  H        13.9326099556       -0.5780902321        9.9137979337
  H        14.2139711038        0.8059400998        7.7134826595
  H        12.5620604683        2.4464218350        7.2389255693
  H        10.6863360231        2.9542451113        8.9147554968
  H        10.8227520752        2.0123451264       11.2272803698
  C        14.8015329548        1.1981985032       12.1893650183
  C        15.7504786733        1.8803946912       12.9142610124
  H        16.6655395348        2.2216640601       12.3875709811
  H        14.8957675538        1.1632937821       11.1260474273
  C        10.4360368576       -1.5440119387       16.3571915965
  C        11.0727975786       -2.7002218038       16.8621481045
  C        10.9452742112       -2.9966675925       18.2165239462
  C        10.1776843801       -2.1998162719       19.0549162869
  C         9.4606648293       -1.1296413642       18.5727744817
  C         9.5756045556       -0.8708950109       17.1932989480
  H         9.0478365852        0.0143692922       16.8389802132
  H         8.8886453770       -0.4559255495       19.2308694521
  H         9.9686635785       -2.5713438844       20.1088914632
  H        11.5049376231       -3.8325255644       18.6903089279
  H        11.7073913974       -3.3338295781       16.1699155219
  C         8.0939788283       -2.3639754482       14.7603730103
  C         7.0490596510       -2.8892072244       13.9968999006
  C         7.1706373829       -2.8411873641       12.5616502093
  C         8.2195506503       -2.2979513261       11.9387878187
  H         8.2885998453       -2.2972428026       10.8166056946
  H         6.2966919828       -3.1761070119       11.9545152946
  H         6.1071647325       -3.2838085404       14.4539578392
  H         8.0630561301       -2.5018180143       15.8579159359
  C        10.5228300404       -1.4669723883       10.4950791068
  C        11.2963961847       -2.5819719525       10.1803826206
  C        11.3190180554       -3.0506346936        8.8857761961
  C        10.5010162750       -2.3618214528        7.9426019437
  C         9.6898117865       -1.2697160729        8.2734246870
  C         9.7130543329       -0.8409167411        9.5843659610
  H         9.1195383853        0.0021752891        9.8379349289
  H         9.0510583377       -0.8492145085        7.5062679313
  H        10.3654719318       -2.7597384578        6.9505754346
  H        11.9369700065       -3.8744814909        8.6525622771
  H        11.7935220364       -3.0534938392       11.0378115588
