140

  C        10.0757592247        7.0973069472        1.1293713080
  C         9.1163327804        7.8929610681        1.7586459117
  C         8.0334559821        8.5105480697        1.0661251787
  C         6.9350027690        9.2034787757        1.7085853758
  C         5.8985708573        9.8929188714        1.1190820869
  C         9.1725326366        8.2586980636        3.2119981343
  C         9.8724396148        9.4108439460        3.6912138547
  C         9.8985915578        9.8555033539        5.0019489477
  C         9.1360722921        9.0910567586        5.9482823574
  C         8.4576787813        7.9012936205        5.5237501868
  C         8.3734367609        7.6230801462        4.1642788977
  H         6.7773002922        9.0307815951        2.8232667019
  H         5.0474655461       10.3395832635        1.6162698926
  H        10.4785061919        9.9361091735        2.9777070441
  H        10.4914400691       10.7311434507        5.3113934152
  H         9.1744094531        9.5100953170        6.9213645557
  H         7.8008867762        7.3668440098        6.2094071803
  H         7.8705399079        6.7069783049        3.8635471115
  C        10.1869721241        7.2637160487       -0.3624054633
  C        11.2028205693        6.5920819269       -1.0088059523
  C        12.2866927731        5.9493596551       -0.1967096741
  C        12.2694080368        5.9713484560        1.2394402483
  C        11.0502654837        6.4795779285        1.9516129240
  C         8.0172645654        8.4927851100       -0.3708269234
  C         9.1424717187        8.0298748493       -1.0134752626
  C         9.3511129788        8.3908465054       -2.4762360636
  C        10.3268729304        9.3590349227       -2.7858651802
  C        10.3994297720        9.7852436917       -4.1106787330
  C         9.5620718937        9.2200543549       -5.1417787101
  C         8.6007878898        8.2612835700       -4.8531519854
  C         8.5735746752        7.8514277724       -3.4731903339
  H         7.8441064982        7.0952452477       -3.1809498684
  H         7.8688284983        7.9352405643       -5.5755484336
  H         9.6934082287        9.4352123678       -6.1854722288
  H        11.2229240963       10.4592714162       -4.3349798286
  H        11.0736669798        9.6097729889       -2.0950107028
  C         6.9270408312        9.1929652734       -0.9841084749
  C         6.0203690818        9.9559570619       -0.3150047671
  H         5.3766600176       10.4957519872       -1.0047324695
  H         6.8577610366        9.1408792662       -2.0372774555
  C        10.9464595070        6.0783731062        3.4250948615
  C        10.1847288809        4.9943070432        3.9408236726
  C        10.3322078476        4.6225827522        5.2498126638
  C        11.1401972285        5.3187170219        6.1734937814
  C        11.9195571219        6.3926862680        5.6881016472
  C        11.7720986180        6.8019944812        4.3054808508
  H        12.3751571006        7.6376295959        3.9254276081
  H        12.6241655238        6.9081165759        6.3653793145
  H        11.1930871091        5.1493824783        7.2581731054
  H         9.7642488536        3.7585915066        5.6292824462
  H         9.5527779932        4.2317718700        3.4562354476
  C        13.4376815933        5.4445687449        1.8433069142
  C        14.4755231399        4.8623894534        1.1904958857
  C        14.3781388050        4.6108841442       -0.2239455153
  C        13.2540941086        5.1673649114       -0.8404828883
  H        13.0115215504        5.0183270354       -1.8629715910
  H        15.0412904915        4.0076382884       -0.8336348348
  H        15.3055033098        4.6536710649        1.9010619950
  H        13.5575258687        5.5357707077        2.8904825968
  C        11.2783972388        6.2756294249       -2.4542702903
  C        10.4618314748        5.2969919378       -2.9762215778
  C        10.5304541847        4.8235167699       -4.3344463066
  C        11.4941760357        5.2634654032       -5.2214065757
  C        12.2066914160        6.3941811899       -4.7293370313
  C        12.1193913480        6.8691255784       -3.3978421433
  H        12.5821480164        7.8046288955       -3.1908769472
  H        12.8281761142        6.9780504688       -5.3754843853
  H        11.6194346462        4.9775089956       -6.2411996015
  H         9.8913680242        3.9621068159       -4.4772232266
  H         9.7096502580        4.8753622347       -2.3028843453
  C        17.5474514861        7.3595004652        1.3325906986
  C        16.5885959343        8.1189550698        2.0337513198
  C        15.4531850435        8.6933476527        1.4166485544
  C        14.4480413549        9.4627964769        2.1798167177
  C        13.3902330702        9.9825389182        1.5109929988
  C        16.5804524788        8.5455610877        3.5168533859
  C        17.2290634032        9.6601060412        4.0599009907
  C        16.9962480739       10.2187700600        5.3122857443
  C        16.1877267951        9.5573134979        6.1792872214
  C        15.5171698433        8.4205831004        5.7414261507
  C        15.7606439948        7.8683960822        4.4636098359
  H        14.4359324723        9.5520751669        3.2629218414
  H        12.5332024045       10.4859683025        1.9920296483
  H        17.8724037191       10.2583722492        3.4675352372
  H        17.6033809101       11.0509411182        5.5755943925
  H        16.0089654258        9.8638094580        7.1875226205
  H        14.9384727253        7.8381076214        6.4234516381
  H        15.3294132995        6.9080767564        4.1806353543
  C        17.3979576083        7.3546622153       -0.1488446182
  C        18.3595560505        6.6126549402       -0.8565006995
  C        19.4661468792        6.0340764889       -0.1340729440
  C        19.5617838359        5.9971919864        1.2687309490
  C        18.5296893021        6.5785855464        1.9947437176
  C        15.3509949389        8.7046009408       -0.0343994048
  C        16.3581485183        8.1180184407       -0.8101976577
  C        16.3738782852        8.4088000547       -2.3031638762
  C        17.1696851534        9.4616243503       -2.6418187185
  C        17.1632903610       10.0003821833       -3.9269947217
  C        16.3939629605        9.3100795609       -4.9108526910
  C        15.6528538084        8.1534584848       -4.5991054953
  C        15.5493264889        7.8175889029       -3.2480260788
  H        14.8881558109        7.0279247130       -2.8632025942
  H        15.1576135249        7.5761635560       -5.3796068453
  H        16.3337737412        9.6790885948       -5.8970304306
  H        17.6220170512       10.9708678092       -4.1081705902
  H        17.8010798946        9.9752951229       -1.9090452785
  C        14.1339219105        9.2522122029       -0.6184131728
  C        13.1750850504        9.8479164066        0.1349429404
  H        12.1476742203       10.0524892050       -0.1791114559
  H        13.9813765055        9.2112832139       -1.6724511495
  C        18.4823638399        6.3066654713        3.4968338089
  C        17.7476972801        5.1944586709        3.9151538650
  C        17.5932135075        4.9454247619        5.2673063411
  C        18.3872700149        5.6666821700        6.2128650711
  C        19.2316735428        6.6546238570        5.8058188747
  C        19.3269483402        6.9975472318        4.4595840826
  H        20.1035134458        7.6955237849        4.1931241253
  H        19.9718640420        7.1126083511        6.4581522513
  H        18.1905208634        5.4296419283        7.2799024617
  H        17.0379111827        4.0682895812        5.6287860204
  H        17.3774645043        4.5002288576        3.1398300777
  C        20.4667382030        5.1152386988        1.8526439272
  C        21.4646720187        4.5608953968        1.1057801184
  C        21.5268831037        4.8133195586       -0.3132795421
  C        20.5079648307        5.4818202839       -0.9543356510
  H        20.4117955397        5.5398005868       -2.0405662092
  H        22.2410316206        4.2383383272       -0.9035844957
  H        22.0896632008        3.7363164600        1.4337790310
  H        20.4184267478        4.8921166665        2.9012672561
  C        18.3040413723        6.1932964023       -2.3054225282
  C        17.5241840584        5.0827217445       -2.6699215927
  C        17.5463826429        4.6809610580       -4.0244161312
  C        18.2410576791        5.3387091165       -5.0248679709
  C        18.9969495274        6.4965714020       -4.6093544333
  C        19.0413603155        6.8705869534       -3.2560397293
  H        19.7096685555        7.6687080217       -2.9513310748
  H        19.6037424509        7.0663487983       -5.3741144747
  H        18.3765898347        4.8442925384       -5.9849843133
  H        16.9324757975        3.7773576616       -4.2314324362
  H        16.9735532182        4.5985043593       -1.8806606388
