140

  C        11.8164707534        7.4059083273        2.2701459590
  C        10.6903189707        8.0797891389        2.9131888678
  C         9.5592483118        8.5465583462        2.2098211245
  C         8.4559745193        9.2202351026        2.8990406553
  C         7.3426234242        9.7458513095        2.2551904924
  C        10.6921470113        8.2986575906        4.4248522119
  C        11.3077043178        9.4505080285        4.8521557595
  C        11.2113506580        9.7570505458        6.2537253477
  C        10.4269109308        9.0253871802        7.1179537181
  C         9.6677889231        7.9932591594        6.6148672773
  C         9.8162683487        7.6011903842        5.2963968030
  H         8.5541199152        9.1670218659        3.9323829912
  H         6.4394144839       10.0709131917        2.7182966437
  H        11.8510968268       10.1492834114        4.2341369776
  H        11.7532567115       10.6289502511        6.5859606416
  H        10.3177577796        9.4004478275        8.1668406160
  H         9.1147862055        7.2844801921        7.2726535372
  H         9.1595036663        6.8097115040        4.9364133717
  C        11.7590018588        7.3767003873        0.7594338489
  C        12.7406656045        6.5686884296        0.0684976626
  C        13.7210172254        5.8508090911        0.8022964603
  C        13.8127337049        5.9230208715        2.2468382049
  C        12.8242375589        6.6443659746        2.9432696796
  C         9.6054910013        8.5511939626        0.7853872866
  C        10.7391437022        8.0221759070        0.0959008571
  C        10.8178184141        8.4299377904       -1.3472551560
  C        11.6492544169        9.3557183480       -1.9360263935
  C        11.5858193506        9.6900076754       -3.2915914831
  C        10.5661802658        9.0989690883       -4.1308999184
  C         9.7930737116        8.1012426289       -3.5354269590
  C         9.9125186929        7.7243781598       -2.1755879558
  H         9.1874593539        7.0140231301       -1.7686177129
  H         8.9777587041        7.6491578925       -4.1140023230
  H        10.5393422902        9.3747436098       -5.1527174578
  H        12.3580007109       10.3910807145       -3.6055543307
  H        12.3760194289        9.9059670206       -1.2169883634
  C         8.4428852558        9.0598093321        0.1194913131
  C         7.3522994991        9.5933831535        0.8593762954
  H         6.5455813230       10.0460048016        0.3343166057
  H         8.4539638741        8.9699246912       -0.9775300905
  C        12.7189125783        6.3801876432        4.4082488290
  C        11.9498537522        5.2488766605        4.7821775110
  C        11.9384310193        4.7105159859        6.0692475131
  C        12.7993746486        5.2765623900        7.0295058688
  C        13.6093222261        6.3753084261        6.6736968862
  C        13.5894528950        6.9079865632        5.3561657165
  H        14.2282387429        7.7154077242        5.0495107306
  H        14.2810338171        6.7685888743        7.4207566630
  H        12.6620332817        4.9937934357        8.1212014472
  H        11.2964110447        3.8796289026        6.2482908806
  H        11.3556361676        4.7411597435        4.0493308924
  C        14.7996515034        5.0789554336        2.8819492375
  C        15.6885689090        4.3846398318        2.1963605610
  C        15.6417376730        4.2657488177        0.7884528071
  C        14.6587764835        5.0118981135        0.1432881672
  H        14.4507281809        4.8315064873       -0.9324026698
  H        16.4180744842        3.7077053361        0.2883710821
  H        16.3476288524        3.7500727625        2.6852284216
  H        14.8703433493        5.0028220898        3.9484926255
  C        12.7630082235        6.3363388963       -1.4503513073
  C        11.8509727316        5.4367760617       -1.9876380134
  C        11.8927523468        5.0133952189       -3.3425533299
  C        12.9097369337        5.3912964439       -4.1831529822
  C        13.7050004920        6.3781898198       -3.6761287807
  C        13.7118322598        6.8380670569       -2.3681250801
  H        14.4273770600        7.6802383381       -2.0599609636
  H        14.4855758781        6.7966587394       -4.2981521267
  H        13.0339980931        4.9701699678       -5.1999929693
  H        11.1698168499        4.2799987353       -3.6106509427
  H        11.1002877263        5.0739773233       -1.2569901362
  C        18.6319422144        7.1646703974        2.4508357899
  C        17.6638505691        7.9229048875        3.1398153791
  C        16.6745564601        8.6090398792        2.4746055187
  C        15.6395229875        9.3057501619        3.1132020708
  C        14.5198648137        9.7529586566        2.4583101883
  C        17.7042334472        8.2721830444        4.6089461963
  C        18.4707974716        9.3255138617        5.0265993228
  C        18.3605998392        9.7450729882        6.3379258452
  C        17.6680984232        9.1006962346        7.3345536661
  C        16.9122516851        7.9678777617        6.9127389980
  C        16.9124690118        7.5902032744        5.5678979503
  H        15.6203020391        9.3470750734        4.1811048188
  H        13.7158807809       10.2243108687        3.0142096919
  H        18.9586555150        9.9562683328        4.2972317682
  H        18.9247593845       10.6348925949        6.5305070627
  H        17.6102606638        9.4528471488        8.3515070416
  H        16.1811440328        7.5082881917        7.5308486479
  H        16.2812156730        6.7883290853        5.3009021123
  C        18.6515475892        7.1565693184        0.9776356818
  C        19.6817988001        6.4179878149        0.3125284687
  C        20.8108658202        5.8374578889        1.0474750677
  C        20.7969085898        5.8881766279        2.5630660587
  C        19.6523499532        6.4030469686        3.2221175737
  C        16.6075139027        8.4943809247        1.0166549157
  C        17.6339027184        7.8925335829        0.3125026716
  C        17.7190997569        8.1899738211       -1.2385257694
  C        18.4162415846        9.4164560504       -1.6178718315
  C        18.5892379599        9.7026169878       -2.9942545860
  C        17.9443510040        8.9406757788       -3.9652093182
  C        17.2997432140        7.7157771310       -3.6381240259
  C        17.2099232341        7.3373085220       -2.2880865823
  H        17.0157658444        6.2775139567       -2.0157349440
  H        16.7891199989        7.2112085569       -4.4573133199
  H        18.0182536584        9.2737354642       -4.9778116080
  H        19.1315170951       10.5837969094       -3.3183824501
  H        18.7317900827       10.1144598875       -0.8938259352
  C        15.5294793409        9.1319604065        0.3586182026
  C        14.4869520628        9.7466548035        1.0513056671
  H        13.6802991607       10.2452879966        0.4262584030
  H        15.5372217692        9.1668115829       -0.7308826379
  C        19.5867850462        6.0717550012        4.6981091396
  C        18.8468240405        4.9105381655        5.0349435376
  C        18.8097827952        4.4262833293        6.3275208632
  C        19.4380046001        5.1146055444        7.3563155826
  C        20.1640034275        6.2193062373        7.0262629694
  C        20.3023873006        6.7064245734        5.7049237749
  H        20.7163931276        7.7068072674        5.4931513419
  H        20.7587982087        6.8067088080        7.7020520809
  H        19.4660932137        4.7153350669        8.3780940947
  H        18.3386087308        3.4286302626        6.5546343827
  H        18.3578245613        4.3174205839        4.2504674496
  C        21.8769431207        5.3195079333        3.2612100390
  C        22.9536023412        4.7481804564        2.6668529681
  C        22.9614862656        4.6527110988        1.1961619241
  C        21.9141227455        5.1301182747        0.4737597614
  H        21.8786784374        5.1267539126       -0.6161695823
  H        23.7535446309        4.0189609909        0.7539884579
  H        23.8169298849        4.2218457368        3.1602310430
  H        21.7250390926        5.2928757014        4.3255540305
  C        19.7308521763        6.0811907502       -1.1411055197
  C        19.0826923487        4.8618378740       -1.5900663480
  C        19.2747700134        4.3575464645       -2.8790405733
  C        19.9585690119        5.1388891091       -3.7820652264
  C        20.5846088275        6.3666591584       -3.4360387550
  C        20.5606833250        6.7504581089       -2.0732763249
  H        20.9796808643        7.7186545308       -1.7295229847
  H        21.1293365873        7.0125066637       -4.0885425432
  H        20.0399651754        4.8616608171       -4.8337542434
  H        18.9403102577        3.3368602753       -3.1461134547
  H        18.5325660146        4.3236491664       -0.8589572697
