140

  C         4.1533450264       -0.3480232711       14.4864602612
  C         5.2461123630        0.2621643299       15.1195189394
  C         6.2399134544        0.9732944597       14.3551429966
  C         7.1920575327        1.7449353014       15.0694441992
  C         8.2943756867        2.2202364260       14.4690143447
  C         5.1701296158        0.5128271303       16.6158281704
  C         4.4186079859        1.6207807940       17.0261964012
  C         4.5001675373        1.9554969455       18.4408621473
  C         5.3663149876        1.2499564458       19.3256835421
  C         6.1292676570        0.2075876578       18.7894432780
  C         5.9664185379       -0.2188547154       17.5024580864
  H         6.9761038208        2.0614263274       16.1116460563
  H         8.9920220752        2.8869604485       14.9453344590
  H         3.8104432859        2.2815983715       16.4157081118
  H         3.8362603029        2.7735741135       18.8022749257
  H         5.5325720944        1.5771734407       20.3361649797
  H         6.7329235360       -0.4870004575       19.3781838824
  H         6.4861439699       -1.1039150584       17.2063397605
  C         4.1066996715       -0.2515307341       12.9343392418
  C         3.2426322714       -1.1164942547       12.2138124311
  C         2.0587231850       -1.5450712448       13.0016625201
  C         2.0575707407       -1.5709618627       14.4453418675
  C         3.1216128898       -0.9882787853       15.1283951521
  C         6.2652487826        1.0000446858       12.9482425751
  C         5.1649179448        0.4121163921       12.2216185091
  C         5.0106631637        0.7288312067       10.7262479672
  C         4.1241481746        1.7347980512       10.4351391729
  C         3.9572579817        2.2083429155        9.1105127998
  C         4.5953092484        1.5833132825        8.0257772293
  C         5.4986371535        0.5580631980        8.3455303859
  C         5.6998080868        0.1858205186        9.6500843878
  H         6.3255728013       -0.6778488409        9.8760517628
  H         6.1167419487       -0.0114642504        7.5910794298
  H         4.3410300527        1.8168345640        6.9992221498
  H         3.3211102235        3.0603437784        8.8924850152
  H         3.7528147955        2.3428080774       11.2276684312
  C         7.3392824112        1.5836975645       12.3189165657
  C         8.4158164622        2.0559211676       13.0555221491
  H         9.2863126426        2.3712427602       12.5654908408
  H         7.2331123941        1.7636353221       11.2470936478
  C         3.2278664834       -1.4027187517       16.5377592929
  C         3.7922692666       -2.6951678579       16.7934586450
  C         3.6111013804       -3.2716400179       18.0530502816
  C         2.8252559967       -2.6856366823       19.0379039360
  C         2.2675004954       -1.4046352121       18.7917391042
  C         2.4980364661       -0.7504541723       17.6039541882
  H         2.0484457882        0.1894034878       17.3828186290
  H         1.4573177132       -1.0594632494       19.4790153147
  H         2.7426047128       -3.1434744330       19.9972405330
  H         4.1303852795       -4.2109598738       18.3437007034
  H         4.3610316571       -3.1583018112       15.9719820805
  C         0.8829840036       -2.1614296977       15.0832557747
  C        -0.1085344827       -2.8444927422       14.4080049651
  C         0.0100258546       -2.9950041008       13.0107564956
  C         1.0396246626       -2.3278805128       12.3748935823
  H         1.1360186139       -2.3844840622       11.3345923006
  H        -0.7478504465       -3.5812867495       12.4684030914
  H        -0.9662102323       -3.2695906391       14.8979150134
  H         0.8484545939       -2.1491593878       16.1515319919
  C         3.1924695019       -1.4974974240       10.7309836893
  C         3.9591171728       -2.5405799217       10.2986449211
  C         3.9622083898       -2.9284374406        8.8952199213
  C         3.1038868785       -2.3214167251        8.0095841743
  C         2.3222913748       -1.2534908448        8.4558584508
  C         2.3574836161       -0.8348555777        9.7537520699
  H         1.7507564930       -0.0371520531       10.1020730845
  H         1.6314238244       -0.8170193161        7.7702852010
  H         3.1012760358       -2.7022656710        6.9659445102
  H         4.6623983856       -3.6323866304        8.5067268474
  H         4.7025107176       -3.0044721123       10.9807988962
  C        11.3158420830       -0.2738835315       14.2357813563
  C        12.2984313563        0.4812001820       14.9515802257
  C        13.4178163185        0.9585144017       14.2060987234
  C        14.5252158534        1.6019392290       14.9117494006
  C        15.5349807348        2.2820734646       14.2952783547
  C        12.2657355252        0.8297209913       16.3449399769
  C        11.4226380325        1.9554596185       16.6882481060
  C        11.3711176105        2.4036320188       17.9872432883
  C        12.2264890053        1.8952599030       18.9484478226
  C        13.0889240002        0.8357606332       18.6563019446
  C        13.1207608588        0.3375355998       17.3221134056
  H        14.3626618219        1.5853666859       15.9515276419
  H        16.3305284412        2.7724066009       14.8810374799
  H        10.9439877133        2.4777342880       15.8527279180
  H        10.5767481340        3.1453528951       18.2656453334
  H        12.3318456987        2.3666001656       19.9077672220
  H        13.8562357035        0.4737125827       19.3268222541
  H        13.6939469950       -0.5564272034       17.1005411340
  C        11.3494527306       -0.3360172978       12.7359552747
  C        10.3560718078       -1.0684344640       12.0191502663
  C         9.2776085043       -1.6742316169       12.7812498369
  C         9.1997518873       -1.5670855908       14.2141908252
  C        10.2388740102       -0.9006783680       14.9117238786
  C        13.4797806637        0.8819878572       12.8075343787
  C        12.3947226748        0.3319508303       12.0975216433
  C        12.4606125549        0.5957746514       10.6522081646
  C        11.5547965193        1.5817620780       10.1933119360
  C        11.5437519724        2.0425173119        8.8834968274
  C        12.5580178701        1.6647566258        8.0427033039
  C        13.4461754798        0.6602488599        8.4617116380
  C        13.4221862009        0.0774238734        9.7167551812
  H        14.0454363610       -0.7054662662       10.0180411242
  H        14.2821030428        0.3778457331        7.7982941547
  H        12.7464423719        2.0910770409        7.1019691743
  H        10.8261301016        2.8286598821        8.6984350015
  H        10.7849240525        1.9825653701       10.8135371751
  C        14.6529567178        1.5039651454       12.1755150510
  C        15.5879725426        2.2272637915       12.8457421448
  H        16.3908376977        2.6878287253       12.2339032104
  H        14.6542990315        1.4777870330       11.0992366467
  C        10.2583932141       -1.1930212634       16.4158067002
  C        10.9348401409       -2.3414443320       16.9547579592
  C        10.8105129917       -2.7072491439       18.3146766467
  C         9.9986286036       -2.0346913413       19.2016951705
  C         9.3848414506       -0.8844443026       18.7024502470
  C         9.4749810632       -0.4953024633       17.3717842552
  H         8.9712874038        0.3837307023       16.9644933836
  H         8.7943497652       -0.1861879938       19.3148633614
  H         9.9357425525       -2.3061449780       20.2707927761
  H        11.3293393049       -3.6307867310       18.7130078011
  H        11.6932045787       -2.8971568852       16.3932989798
  C         8.1610249819       -2.1970410987       14.8749670332
  C         7.1145416898       -2.8836640904       14.2194331122
  C         7.1752689822       -2.9787868619       12.8133987463
  C         8.1667568615       -2.3547603006       12.1428228085
  H         8.2411396471       -2.3995937726       11.0478467997
  H         6.3192868052       -3.4301450174       12.3398607847
  H         6.3236490232       -3.3330181302       14.7768299576
  H         8.1680159335       -2.1936340694       15.9869883361
  C        10.3017212081       -1.2924678533       10.5177444018
  C        11.2303655025       -2.2109764502       10.0324411556
  C        10.9717955501       -2.6577437302        8.6792203165
  C         9.7940596527       -2.3798472607        7.9892833418
  C         8.9234491697       -1.4046200348        8.4814618911
  C         9.2162355034       -0.8360934984        9.6955151431
  H         8.6280558609       -0.0080295182       10.0980562321
  H         8.0225508795       -1.0958971479        7.9667036609
  H         9.6170364010       -2.7606510013        7.0034106691
  H        11.7772139305       -3.1644114199        8.2193280737
  H        12.1030810013       -2.4945651207       10.5727699398
