140

  C         4.6555380311       -0.8552547939       13.7273644613
  C         5.6402358311       -0.0827793070       14.4207320593
  C         6.7403479093        0.4871559123       13.7583527208
  C         7.6657919771        1.2131170428       14.5575773013
  C         8.7203079572        1.8232811154       13.9485480571
  C         5.4881821563        0.2019425068       15.9487454079
  C         4.6947152204        1.3246437566       16.2248811449
  C         4.8528816518        1.9512533089       17.5005268468
  C         5.8637609460        1.5117191881       18.3347242129
  C         6.6137736202        0.3841745261       18.1093014306
  C         6.3738034559       -0.3188876139       16.8979239621
  H         7.4044557192        1.3774195888       15.6079131208
  H         9.3854688748        2.3398249386       14.5808728952
  H         4.0147515575        1.8242736905       15.4859582091
  H         4.2920949430        2.8384872420       17.7358363925
  H         6.0668184046        2.0421987385       19.2811328616
  H         7.3282856881        0.0458536937       18.8639472466
  H         7.0419992162       -1.1789776626       16.6260663132
  C         4.6540323642       -0.8004818115       12.2267868084
  C         3.5700463682       -1.5122640289       11.5739391522
  C         2.4399261522       -1.9785841466       12.2998316078
  C         2.4789387482       -2.0039093628       13.7652227193
  C         3.6201734623       -1.5504560602       14.4255781570
  C         6.7639962175        0.5476966710       12.2855284140
  C         5.6637906930       -0.0000325787       11.5396174401
  C         5.5081137641        0.2062093388       10.1227575119
  C         4.7474940928        1.2360643115        9.6547021705
  C         4.7661971316        1.6778766967        8.3366487053
  C         5.5828138255        0.9625090779        7.3903148167
  C         6.2685849896       -0.2504403484        7.8069429920
  C         6.2534892383       -0.5962470742        9.2022175942
  H         6.6177573456       -1.5005448690        9.6434931833
  H         6.9675503045       -0.7872818803        7.1553247259
  H         5.7567310487        1.2459516368        6.3777869943
  H         4.1084145824        2.4812143416        8.0147869923
  H         4.0563309364        1.7865222651       10.3507053112
  C         7.9381117901        1.1254667729       11.6370101838
  C         8.9676720067        1.6214876042       12.4992564237
  H         9.8994420048        1.9305006745       12.0630603621
  H         7.9310482825        1.1129132519       10.5120112487
  C         3.7843599349       -1.8818573271       15.8941265849
  C         4.6958742535       -2.8386342630       16.3367704601
  C         4.7895094565       -3.1220363873       17.7478052061
  C         3.9190080693       -2.4745129324       18.6784053032
  C         3.0291754656       -1.4635356440       18.2168800435
  C         2.9694797489       -1.2507127999       16.7944301400
  H         2.3670643900       -0.4479979479       16.4432682436
  H         2.4026958936       -0.9115527113       18.9465535013
  H         3.9608298053       -2.7245278856       19.7407960904
  H         5.4870399889       -3.8775974260       18.0697561899
  H         5.3352569278       -3.2952661720       15.5947739706
  C         1.3247931598       -2.4524483068       14.4348512979
  C         0.1753773986       -2.8747544887       13.7794699108
  C         0.2887732043       -3.1103593597       12.3280021183
  C         1.3800436594       -2.6557888144       11.6612787276
  H         1.4619485783       -2.7520559236       10.6266713625
  H        -0.4820389551       -3.6779186702       11.8598168215
  H        -0.7750750833       -3.1236540112       14.2765588401
  H         1.2915375094       -2.5171466009       15.5070302384
  C         3.5374520726       -1.9661924969       10.1020742869
  C         4.1336564727       -3.1831440340        9.7422202580
  C         4.0638383162       -3.6687909368        8.4481150643
  C         3.2730564720       -3.0534779272        7.5358409285
  C         2.5851034254       -1.8566675809        7.8798525448
  C         2.8484481356       -1.2341452716        9.0990813134
  H         2.1904281136       -0.4240016270        9.3592777898
  H         1.8134453423       -1.4257308723        7.2736492903
  H         3.0052705361       -3.4944842833        6.5876719741
  H         4.6327899841       -4.6155027802        8.1834079985
  H         4.7884851700       -3.7022726891       10.4718130959
  C        11.6719953818       -0.7859437348       13.7133136471
  C        12.6991008828       -0.0918797196       14.4254969786
  C        13.8634648486        0.3605781514       13.8072074545
  C        14.9723803335        0.7746309578       14.5539401100
  C        16.1448480727        1.2704061770       13.9973117735
  C        12.5513961888        0.2636535302       15.9104875127
  C        11.9175324584        1.4374879277       16.3260147255
  C        11.8872439406        1.7891386166       17.6664818457
  C        12.6257568103        1.0063736062       18.6212595773
  C        13.4127764236       -0.0629190416       18.1769935019
  C        13.3128302073       -0.4728286891       16.8297576980
  H        14.8928595717        0.8040396758       15.6366764590
  H        17.0194915485        1.5638516252       14.6452511445
  H        11.2875167744        1.9977179886       15.6265120630
  H        11.3407747388        2.7000310250       17.9722153802
  H        12.7094383461        1.3777195163       19.6614008142
  H        13.9746363257       -0.6095714390       18.9580069318
  H        13.9589012926       -1.3118762768       16.5140148102
  C        11.7380990956       -0.6819737599       12.2224696486
  C        10.6858551183       -1.3874687912       11.4284738890
  C         9.5873562456       -1.9757756134       12.1396889800
  C         9.5684003428       -2.0473103223       13.5458141829
  C        10.6417302205       -1.5445380716       14.3256115884
  C        13.9862001449        0.3291269631       12.3718917272
  C        12.8736109138       -0.0591889796       11.5953431227
  C        12.8833429136        0.1290975171       10.1212174332
  C        12.0309224543        1.0854129459        9.5914831865
  C        12.1991353935        1.4946673796        8.2373413799
  C        13.0771560745        0.8282013810        7.4365360746
  C        13.8868530027       -0.1860644646        7.9323749555
  C        13.8201025355       -0.5490563944        9.2958883404
  H        14.4666959363       -1.3097648607        9.7303108788
  H        14.6880393591       -0.6461593646        7.3134138045
  H        13.3002176696        1.3252973658        6.4739041918
  H        11.6131547414        2.2977293824        7.7619283779
  H        11.3732819834        1.6797495664       10.2590707829
  C        15.2255508308        0.8116733784       11.8147281034
  C        16.3071933905        1.1996533314       12.5546726549
  H        17.2958535228        1.4740386984       12.1192497239
  H        15.3069632801        0.6289711268       10.7448857349
  C        10.7809621939       -2.0332242426       15.7924993627
  C        11.5550412679       -3.1293355298       16.1102514535
  C        11.5302391949       -3.6424277397       17.4178830076
  C        10.7144515792       -3.0439480103       18.4058446464
  C         9.9544541528       -1.9223421630       18.1082726205
  C         9.9935369330       -1.4192594206       16.7868518247
  H         9.4428370163       -0.4728060728       16.6324322891
  H         9.4259411534       -1.4392594917       18.9030212973
  H        10.6988388416       -3.4015585086       19.4319288769
  H        12.1401721083       -4.5332711500       17.6872120341
  H        12.1673518045       -3.7049949428       15.4115537947
  C         8.5183293018       -2.7382345882       14.2071360863
  C         7.5515087360       -3.4168141580       13.4814207562
  C         7.5947391746       -3.3851200430       12.0630174344
  C         8.5238160381       -2.6855815477       11.3865574513
  H         8.5322890573       -2.6639373177       10.2884284522
  H         6.8640729241       -4.0279948909       11.5411446310
  H         6.7375710325       -3.9480882969       14.0276826565
  H         8.4496054848       -2.6695841280       15.2749823035
  C        10.7560449688       -1.7320341139        9.9757047969
  C        11.5049989356       -2.9250245367        9.8116765219
  C        11.4399190125       -3.6799758417        8.5802321376
  C        10.8674683698       -3.0667870674        7.4441134335
  C        10.0686102790       -1.8885093143        7.6201710956
  C        10.0155092745       -1.2574739397        8.8575777098
  H         9.3593095035       -0.4329464578        9.0030907911
  H         9.3832614399       -1.5376456282        6.8528523092
  H        10.8186534991       -3.6251489840        6.5298863415
  H        11.9629456058       -4.6240781635        8.5944279405
  H        11.9798553276       -3.3941016489       10.6376398768
