140

  C         4.2713948091       -1.2053589858       13.7213414552
  C         5.2198850736       -0.3555355683       14.4242035888
  C         6.1991908408        0.3359558024       13.7030582797
  C         7.3168759355        0.8900592052       14.3739919936
  C         8.4011846543        1.4190858983       13.6966470441
  C         5.0992531761        0.0096260864       15.9352551413
  C         4.1647882536        1.0784470416       16.2091150469
  C         3.9657173682        1.6133320655       17.4906261301
  C         4.6851564661        1.0127618871       18.5734063453
  C         5.7402111409        0.1120124130       18.3574657691
  C         5.9192100648       -0.3385672105       17.0313182881
  H         7.2594298233        0.8555786181       15.4410656096
  H         9.1966534444        2.0068683285       14.1950832574
  H         3.5276852034        1.4213159920       15.4070489422
  H         3.3258820683        2.4717603471       17.6948718755
  H         4.7184510356        1.5221353952       19.5041847869
  H         6.3542275943       -0.1253436276       19.2064564475
  H         6.7093332439       -1.1223087315       16.7677907744
  C         4.0292052122       -0.9705005004       12.2406330810
  C         3.0125109174       -1.6484813983       11.5393732358
  C         2.0533286054       -2.3868145666       12.2772707593
  C         2.2155593104       -2.5665109632       13.6910336050
  C         3.2925723498       -1.9815146415       14.4045799394
  C         6.1183940017        0.3374007028       12.2485462046
  C         4.9487007554       -0.0713758834       11.5464836281
  C         4.9743171472        0.2089663421       10.0782506571
  C         4.4475907036        1.4908299126        9.6152178514
  C         4.7489260115        2.0066883851        8.3701848443
  C         5.5958544433        1.2925610654        7.4256294573
  C         6.1327798242        0.0400237944        7.9029075753
  C         5.8312418577       -0.4639068930        9.2162277911
  H         6.3382873901       -1.3624429344        9.5991380860
  H         6.9462624517       -0.4995376786        7.4183852090
  H         5.8824820448        1.5660273155        6.3817740182
  H         4.2605395910        2.9927334375        8.1153287916
  H         3.8410087063        2.1093058264       10.3171034717
  C         7.2180990155        1.0184874620       11.6163630231
  C         8.3016849822        1.5142963210       12.2702277230
  H         9.1084623368        2.0430406680       11.7290812518
  H         7.1607474402        1.2897713408       10.5290913386
  C         3.3879486165       -2.1526816897       15.8687982234
  C         4.3528719498       -3.0291760209       16.4642754996
  C         4.2036138068       -3.4489536929       17.7542854140
  C         3.3133966927       -2.8730719045       18.6380542049
  C         2.4219611040       -1.8638605486       18.1213772816
  C         2.3891611203       -1.6043713022       16.7355286116
  H         1.5995599179       -1.0613448875       16.3224612253
  H         1.7213307769       -1.3932597095       18.7867392181
  H         3.2379532668       -3.1199323850       19.6971649705
  H         4.9123067663       -4.2874490482       18.0740423857
  H         5.1243167514       -3.5569619808       15.8379564434
  C         1.1849562293       -3.3194329052       14.3953847579
  C         0.1811396855       -3.9662080824       13.7339662552
  C         0.0343926908       -3.8021514482       12.2847951619
  C         0.9168667424       -2.9834983202       11.6041340316
  H         0.9390773259       -2.7402656648       10.5545468192
  H        -0.6833281853       -4.2813238268       11.6582676031
  H        -0.5135600825       -4.6740636801       14.1811167558
  H         1.2011458333       -3.4746302996       15.4637210750
  C         3.1330661352       -1.8605063334       10.1472356283
  C         3.9188557826       -2.9734186388        9.7272753085
  C         4.1222299526       -3.2761236895        8.3831609614
  C         3.3945044606       -2.6236145894        7.4039563769
  C         2.3925069026       -1.6768595614        7.8035829510
  C         2.3052876865       -1.2739948298        9.1555582301
  H         1.6614529689       -0.4532682226        9.4106498717
  H         1.7766149890       -1.1590057857        7.1328859404
  H         3.5936408503       -2.7946772240        6.3349433569
  H         4.7708245563       -4.0052266038        7.9386801490
  H         4.4332094130       -3.4233864688       10.5438006502
  C        11.4845076179       -0.8905757934       13.8394271427
  C        12.5389625347       -0.2333394709       14.6051832038
  C        13.7272620806        0.1673239187       13.8971144669
  C        14.8805868221        0.7381854533       14.5867656449
  C        15.8648361121        1.3448701291       13.8820590883
  C        12.4640208172        0.1303241649       16.0656531557
  C        11.5010310863        1.0520181965       16.5223722379
  C        11.4191002249        1.4702076873       17.8893772556
  C        12.3435970237        0.8786969160       18.8196500454
  C        13.2472411155       -0.0546249905       18.3624105674
  C        13.3121608064       -0.4677445231       17.0191785441
  H        15.0373809563        0.7102749587       15.6840453646
  H        16.8259293785        1.7349140702       14.3775512210
  H        10.8096194996        1.4631698138       15.8088916764
  H        10.5937486294        2.1144348142       18.2313920398
  H        12.1973170326        1.1330342342       19.8585753022
  H        13.7459034819       -0.6594614028       19.0888574334
  H        14.1604707134       -1.0960799701       16.6511294190
  C        11.6060624760       -1.0163488242       12.3799017491
  C        10.4995468707       -1.6210495075       11.6955307819
  C         9.2946723814       -2.0427754365       12.3299741562
  C         9.3388399045       -2.1855008762       13.8000058991
  C        10.3901956084       -1.5536993753       14.5273389866
  C        13.7506779177        0.2329939649       12.4412626874
  C        12.6657508120       -0.3703279969       11.7018916784
  C        12.6052398720        0.0267838398       10.2558981945
  C        11.8416517843        1.0804693314        9.7238978627
  C        12.0226032169        1.4497679697        8.3842319808
  C        12.9075334466        0.7273784857        7.5754365493
  C        13.7389733876       -0.2931682635        8.0994056401
  C        13.5009095989       -0.6270291296        9.4358320505
  H        14.1306080657       -1.4117428598        9.8868037398
  H        14.5960566041       -0.7811163466        7.6215213068
  H        12.9310245353        1.0411145339        6.5136786726
  H        11.2924635832        2.0904177297        7.9092155491
  H        11.0849491775        1.5907777948       10.2957015328
  C        14.7897694495        0.9816220180       11.7946926685
  C        15.8345770991        1.5465772265       12.4885338848
  H        16.5454434424        2.2053917995       11.9720159869
  H        14.6152890169        1.0761563129       10.7194986953
  C        10.4528789827       -1.9413505594       15.9236731503
  C        11.4580757736       -2.8218050544       16.3087703469
  C        11.6727245696       -3.2361681466       17.6421629983
  C        10.7533580614       -2.7890301411       18.6779198960
  C         9.7706274777       -1.8236886017       18.3345761183
  C         9.5765042644       -1.4580495415       16.9464580706
  H         8.6998816563       -0.8367041395       16.6425168958
  H         9.0298927033       -1.4570680847       19.0162202775
  H        10.8720115034       -3.1173017503       19.7513699891
  H        12.5054260629       -3.8829667823       17.8149843671
  H        12.0895339321       -3.2582169112       15.5758221899
  C         8.3422002097       -3.0202014866       14.4796415149
  C         7.3402172326       -3.5980267880       13.7701659985
  C         7.1566030269       -3.3299826689       12.3730937022
  C         8.1268141281       -2.5406341906       11.7159736709
  H         8.0478825250       -2.4436734652       10.6454955856
  H         6.3647030266       -3.9002172187       11.8151818360
  H         6.5854647939       -4.2077664347       14.2813178969
  H         8.4247073142       -3.2514792757       15.5364732173
  C        10.6443119888       -1.9484040642       10.2407522497
  C        11.4977157323       -2.9775842464        9.8742338127
  C        11.4816666196       -3.4492748249        8.5649216432
  C        10.7148483535       -2.7784440552        7.5050003098
  C         9.9344593708       -1.6625558021        7.9196938777
  C         9.8756742371       -1.3343405200        9.2338218279
  H         9.3544713068       -0.4317659480        9.4497723617
  H         9.2891009899       -1.1880722742        7.1802505590
  H        10.9755905154       -3.1864589407        6.5381987578
  H        12.1669829208       -4.2705109804        8.3100685078
  H        12.1418865396       -3.4326145029       10.5828659239
