140

  C        12.3667545169        5.8907838921       -0.0518874371
  C        11.3945911263        6.6260694941        0.7305173853
  C        10.1817195283        7.0950905532        0.1469929563
  C         8.9679144141        7.5853538904        0.8950331184
  C         7.8865441479        8.1830973419        0.2465247608
  C        11.5443111035        6.8181218295        2.2886771204
  C        12.3883210046        7.9397304990        2.5586622441
  C        12.3948822715        8.5739118153        3.7972716104
  C        11.6851983071        7.9511566655        4.8739080565
  C        10.8477934858        6.8259461594        4.6163486595
  C        10.6696160728        6.3473549231        3.3365836103
  H         9.1010517606        7.6254306375        1.9516019199
  H         7.1143977735        8.6951174754        0.8529777519
  H        13.0648306845        8.2228655155        1.7836113199
  H        12.9649571464        9.5415736618        3.9739196938
  H        11.7019324411        8.2465707956        5.9465454468
  H        10.2873927031        6.4775707515        5.4965679872
  H        10.0856042895        5.5126670596        3.0884889187
  C        12.2561300513        5.8896656056       -1.5352412795
  C        13.2438986481        5.1278485145       -2.3099842456
  C        14.4318570479        4.5501647372       -1.6363630725
  C        14.4006875748        4.5458464704       -0.2093512547
  C        13.3720174871        5.1465583744        0.5713851213
  C        10.1382705088        7.1222574926       -1.2964452217
  C        11.2001508053        6.6402984652       -2.1043455909
  C        11.2645470720        7.1658294392       -3.5019780129
  C        12.1408036963        8.2733860915       -3.6586318147
  C        12.2922597230        8.9116787305       -4.8868665800
  C        11.5706015600        8.4174639792       -5.9846433988
  C        10.6224797349        7.3532577833       -5.7886598383
  C        10.5190119192        6.6504184677       -4.5677105216
  H         9.8788018486        5.7206933514       -4.3945732131
  H        10.0205921931        7.0746779259       -6.6083918856
  H        11.6801276410        8.8240912163       -6.9262032575
  H        12.9927217289        9.7929410742       -5.0556212059
  H        12.6786924738        8.5408322325       -2.7083096997
  C         9.1177127977        7.8959032470       -1.8405291100
  C         8.0082780262        8.3767828456       -1.1550360465
  H         7.3068508142        9.0448846528       -1.5642521469
  H         9.2061785630        8.2148200076       -2.8711286728
  C        13.2293183495        4.7637567947        1.9999383951
  C        12.2515237781        3.8147656775        2.3641807591
  C        12.0701057528        3.4717955672        3.6522929541
  C        12.7762600100        4.1155368114        4.6590568836
  C        13.8337281188        5.0354663239        4.3747689605
  C        14.0900433789        5.2910743451        2.9825627339
  H        14.7684011103        6.0491602157        2.5849162092
  H        14.2686768435        5.4869794905        5.2542932387
  H        12.5497098010        3.9390932337        5.7804146405
  H        11.2870585331        2.7902560521        3.9061830657
  H        11.6307793658        3.4084197996        1.5838887690
  C        15.5783879079        4.0013392654        0.5383483868
  C        16.4993125417        3.3086465668       -0.1438397563
  C        16.4036970703        3.1490740524       -1.6199991264
  C        15.3830627104        3.7998939907       -2.3156977562
  H        15.1409980804        3.5652007991       -3.3306468090
  H        17.0844883113        2.4698723389       -2.1310044454
  H        17.3784771162        2.9671411295        0.3541673261
  H        15.6586945972        4.1836476632        1.6453084003
  C        13.1232019941        4.8561964346       -3.7528089262
  C        12.2193837385        3.8920881883       -4.2044645486
  C        12.3271087330        3.3884398147       -5.5227867202
  C        13.1883314526        3.9186229407       -6.4137776267
  C        14.0449006704        4.9774163869       -6.0663799270
  C        14.0253153635        5.4105715790       -4.7098597672
  H        14.7202066396        6.2161152447       -4.3903794706
  H        14.7611351168        5.4558224459       -6.7248021978
  H        13.3880268926        3.4924408016       -7.3369377646
  H        11.6332458842        2.6248061387       -5.7759558075
  H        11.5567180666        3.3859165491       -3.4911684794
  C        19.5487777683        5.7539680275        0.1760214355
  C        18.4793630480        6.4655015842        0.8649224136
  C        17.4629216094        7.0965703648        0.1557945134
  C        16.5170260016        7.9571307129        0.8251654827
  C        15.5620854058        8.6828472136        0.1306961561
  C        18.5553666992        6.7135042065        2.3557994165
  C        19.3532800278        7.7000410387        2.9209976496
  C        19.3468597518        7.9169772576        4.2822594967
  C        18.5785402499        7.0839231469        5.1484311153
  C        17.7253517651        6.1595413158        4.5300397928
  C        17.7698837837        5.8983056412        3.1642497233
  H        16.5234438470        8.1139066918        1.8925206400
  H        14.8587551058        9.3233773589        0.7012230460
  H        19.9086885185        8.3321302460        2.2622704870
  H        19.9055966083        8.7700323509        4.7346063062
  H        18.5335075471        7.1549993703        6.2060071979
  H        17.0949781971        5.5760415753        5.1629491844
  H        17.4224558497        4.9795007165        2.6571591345
  C        19.5658835085        5.7918197680       -1.2770774092
  C        20.7246600937        5.2606629739       -1.9967389798
  C        21.7792343208        4.7204089498       -1.2053731715
  C        21.6950874672        4.6107306992        0.2645340881
  C        20.5461070638        5.0706427496        0.9582994894
  C        17.4328291182        7.1060542351       -1.2725500498
  C        18.5372242003        6.5207047309       -1.9452076748
  C        18.6880445800        6.8756993705       -3.3534900986
  C        19.6066293950        7.8119463049       -3.8053864926
  C        19.7047455678        8.2277806082       -5.1151884995
  C        18.7439483361        7.7453372660       -6.0883876492
  C        17.7030704251        6.8426267125       -5.6243125814
  C        17.7729031715        6.4292997568       -4.3297612702
  H        17.0730285648        5.6434017179       -3.9816878756
  H        16.9308732486        6.6245330246       -6.3930152191
  H        18.6165805561        8.0027531848       -7.1876900548
  H        20.3921855182        8.9809524991       -5.4483187706
  H        20.3569894384        8.2486685808       -3.1175532598
  C        16.3867121609        7.8501841967       -1.9239952836
  C        15.3996494254        8.5601388213       -1.2629456285
  H        14.4894656457        8.9171720215       -1.8228415232
  H        16.3885292855        7.7989428290       -3.0309082596
  C        20.4196317952        4.5842269956        2.3817751096
  C        19.6747687749        3.3919303073        2.7331554039
  C        19.8701459496        2.7441882473        3.9320364286
  C        20.6872915733        3.1923306633        4.9512512416
  C        21.3709002623        4.4108041133        4.6630507245
  C        21.2922384911        5.1121646832        3.4538348659
  H        21.7927271007        6.0443000188        3.2145272273
  H        22.1805237472        4.6873924829        5.3105633286
  H        20.8458544504        2.6887928691        5.9061854189
  H        19.3168911627        1.8091783222        4.1214727882
  H        19.0003045206        2.9655810498        1.9624841800
  C        22.8120169698        4.0143220682        0.9557614644
  C        23.8900286840        3.5669841241        0.3201487455
  C        23.9403595229        3.5816896402       -1.1109073177
  C        22.9077613047        4.0957097399       -1.8593755513
  H        22.8770533426        3.9526824045       -2.9219900433
  H        24.7264221247        3.0862657303       -1.5782626210
  H        24.7003653690        3.0824252205        0.8955208972
  H        22.7634631711        3.9412859823        2.0241944843
  C        20.6781591038        4.9329333470       -3.4867361315
  C        19.7549927801        3.9978230768       -3.9161202328
  C        19.7412212612        3.5101128740       -5.2176922927
  C        20.6445138698        4.1116881377       -6.1318949291
  C        21.5529040297        5.0734345647       -5.7197570270
  C        21.5740987284        5.4992988776       -4.4154765102
  H        22.2155634937        6.2575342516       -3.9718399665
  H        22.1943955049        5.6987881216       -6.3814729822
  H        20.8582708676        3.7157957860       -7.1470438279
  H        19.0476911021        2.7781538909       -5.5482928016
  H        18.9550666159        3.6583579243       -3.2938613903
