140

  C        10.9865240541        7.2664291353        0.5967320933
  C         9.8350549971        7.8901827469        1.1827615663
  C         8.8048624333        8.5370495330        0.4829093794
  C         7.7135124104        9.2065792628        1.1184197186
  C         6.6899212837        9.6763693962        0.3338611930
  C         9.8126498173        8.1963848027        2.6481450864
  C        10.4707432417        9.3941562179        2.9467618266
  C        10.6179275845        9.8819095117        4.2568060706
  C         9.9912679575        9.2022958347        5.3037007670
  C         9.3044082862        8.0036899456        4.9920569792
  C         9.2559817030        7.4867458354        3.7070216125
  H         7.5277791829        9.2064704968        2.2121942680
  H         5.8781745332       10.0740832372        0.9301042186
  H        10.6777007676       10.0573000982        2.0486644555
  H        11.2352784154       10.7586516990        4.5428485616
  H        10.0636182694        9.5326395471        6.3965897666
  H         8.6330353607        7.5101891927        5.7006986223
  H         8.7654190560        6.5604348243        3.5528389215
  C        11.0441319158        7.2152269794       -0.8293741810
  C        12.1353322533        6.5634723120       -1.4660578031
  C        13.1375811572        5.8986772618       -0.7081534599
  C        13.0553576104        5.8358320734        0.7168771258
  C        11.9710421658        6.4395848645        1.3751165422
  C         8.8757489404        8.4113324402       -0.9426779202
  C         9.9741972137        7.8056637695       -1.5885653732
  C        10.0476334857        8.0761651529       -3.0242487403
  C        11.0082961034        9.0241961999       -3.4609539866
  C        10.9310565533        9.5209397385       -4.8191164083
  C        10.0125574512        8.9917766959       -5.7203241861
  C         9.1359973483        8.0019638769       -5.3187175428
  C         9.0800420684        7.5888794614       -3.9768958515
  H         8.2684309980        6.9456691156       -3.6032345575
  H         8.3639982765        7.6176534866       -5.9993610018
  H         9.9674174647        9.3512189609       -6.7715339748
  H        11.5940895877       10.2472590360       -5.1989052804
  H        11.6001391216        9.5507991749       -2.7082623574
  C         7.7921461001        8.9844354616       -1.6765896946
  C         6.7152243226        9.5394044968       -1.0798860863
  H         5.9687954823        9.8983911198       -1.7567206109
  H         7.9928400297        8.8938179241       -2.7539214186
  C        11.8900064010        6.1576233174        2.8735434356
  C        11.4997628677        4.8569323196        3.3734957892
  C        11.4390001599        4.6340566803        4.7745193833
  C        11.8021930669        5.6412295095        5.6541183674
  C        12.3887708917        6.8163716334        5.1666985674
  C        12.5130137977        7.0159398718        3.7951230364
  H        12.9015995587        7.9717489323        3.4827116422
  H        12.8164428066        7.5730164261        5.8391433533
  H        11.4232672612        5.4791410567        6.6464955748
  H        10.9900093210        3.6866723361        5.0627509030
  H        11.2029994671        4.1310242726        2.6114827049
  C        13.9782824410        5.1430772113        1.4665574321
  C        14.9681890024        4.4267131276        0.9469731304
  C        15.0911717095        4.4130153737       -0.5171164051
  C        14.2580483885        5.1950997705       -1.3054225170
  H        14.3983891085        5.2719700927       -2.3928343161
  H        15.9413939322        3.8515110220       -0.9358629977
  H        15.6950695782        3.8939808778        1.5010166203
  H        13.9101666215        5.0198144489        2.5453296859
  C        12.0172563862        6.0396123909       -2.8930407266
  C        11.0254622507        5.0890978073       -3.1318944123
  C        10.9503752259        4.4835197449       -4.3806379147
  C        11.8987545965        4.8180942636       -5.4312833648
  C        12.7987193849        5.8431512330       -5.2568854055
  C        12.9357747354        6.4123066186       -3.9659880395
  H        13.6749854184        7.1897269967       -3.7960269110
  H        13.3905964656        6.2204273906       -6.0769951499
  H        11.8390921332        4.3381429375       -6.4585537923
  H        10.2272896300        3.8056039558       -4.6679377898
  H        10.3052994239        4.8570103630       -2.3405525478
  C        18.0892941626        7.1422462121        0.6905106552
  C        17.0616389538        7.9086437107        1.2816103617
  C        16.0005290692        8.4712298176        0.4489025089
  C        14.8164307315        9.0541656205        1.0622796671
  C        13.7631218674        9.5509912197        0.2639458681
  C        17.0407226098        8.2066728551        2.7956594885
  C        17.8850075737        9.2294286060        3.2961678072
  C        17.8336641352        9.6327286740        4.6637033653
  C        16.9748279770        8.9948561828        5.5216153623
  C        16.2245347977        7.9055846435        5.0735782188
  C        16.1901871915        7.5662727749        3.7333333585
  H        14.7338940209        8.9430036923        2.1352504096
  H        12.8607658382        9.9937972783        0.7606237829
  H        18.4562129262        9.8164113397        2.5620636894
  H        18.4353789217       10.4675333507        5.0289344807
  H        17.0382883286        9.2013914793        6.5949960320
  H        15.6706024733        7.2401518860        5.7795244015
  H        15.5160534082        6.7973226950        3.3994058190
  C        18.1575328837        7.1307802893       -0.8157110299
  C        19.2437383129        6.4116875031       -1.4271135541
  C        20.3166111723        5.9383031494       -0.5807147451
  C        20.2852889113        6.0331311476        0.8481226454
  C        19.1173272306        6.5118972912        1.4852648881
  C        16.0770464304        8.4039962556       -0.9547785118
  C        17.2402121975        7.7962958429       -1.5090099151
  C        17.3306103423        8.1173700453       -2.9337046049
  C        17.9838930304        9.2941488625       -3.3238975024
  C        17.9872196610        9.6337194876       -4.6854558726
  C        17.3308047413        8.8665776163       -5.6461287386
  C        16.6351404941        7.6934359213       -5.2043523229
  C        16.6806952897        7.3063673860       -3.8723325296
  H        16.1122686806        6.3534658336       -3.7396689660
  H        16.0356515194        7.1606240296       -5.9747255035
  H        17.2722361091        9.2077981141       -6.6980210833
  H        18.4889633831       10.5405320727       -4.9795197532
  H        18.4905586854        9.7380074033       -2.4744829241
  C        15.0063928995        8.9005980140       -1.7743111520
  C        13.8953402149        9.4917693619       -1.1823912512
  H        13.0807055075        9.9599581533       -1.6968332829
  H        14.9576331545        8.7833088011       -2.8590902703
  C        18.8244630990        6.1447530755        2.9220801776
  C        17.9127808233        5.1055999359        3.1012315450
  C        17.7035043707        4.5815526064        4.3921615805
  C        18.3913913924        5.1040471410        5.4814211040
  C        19.2130512685        6.1898503013        5.2898226259
  C        19.4853514246        6.6612846502        4.0243568459
  H        20.1896814769        7.5013548733        3.8227819146
  H        19.6901589312        6.6089212835        6.1695542333
  H        18.3489027373        4.5921750923        6.4407482486
  H        16.9507542628        3.8151926935        4.5036441958
  H        17.5893991465        4.5545367579        2.2415203943
  C        21.3525563777        5.4271003563        1.5700626593
  C        22.3280129934        4.6616995282        0.9886682626
  C        22.3812439234        4.5730296549       -0.4462502757
  C        21.4179905119        5.2473834239       -1.1639400211
  H        21.4295468132        5.2484590597       -2.2522970368
  H        23.2046626816        4.0250944932       -0.9254779847
  H        22.9446662385        4.0111748669        1.5853444368
  H        21.3470549584        5.4509614477        2.6670406450
  C        19.1733147575        5.9805600300       -2.8434897308
  C        18.4245494354        4.8898664399       -3.2855392360
  C        18.5123157647        4.3239974950       -4.5310692163
  C        19.4252650673        4.8745689765       -5.5146915171
  C        20.0735925141        6.0376676652       -5.1163969683
  C        19.9840467904        6.5590514432       -3.7943211209
  H        20.5925330237        7.3946574189       -3.5297934363
  H        20.6238197968        6.5449227048       -5.9182294874
  H        19.5682933704        4.4522626231       -6.5244252194
  H        17.7600591199        3.5158249450       -4.7298868374
  H        17.6953206570        4.4404734641       -2.5881174480
