140

  C         3.2155106376        0.1881572451       14.6801145214
  C         4.2215675451        0.9420941792       15.2750002541
  C         5.3315708804        1.4454439157       14.5598702262
  C         6.3651971180        2.1581274117       15.2686472979
  C         7.4868004915        2.6164618412       14.4982338134
  C         4.0341904365        1.2659065846       16.7675029751
  C         2.9922275349        2.1864167094       17.1597425525
  C         2.8837075177        2.7399894065       18.4418341754
  C         3.8555162689        2.4360572493       19.4141605685
  C         4.8572565401        1.5631459878       19.0552811853
  C         4.9927222537        0.9307586600       17.7530311761
  H         6.3632846667        2.3610493929       16.3127418892
  H         8.3445240076        3.1262017541       14.9783306792
  H         2.3236130759        2.5463952648       16.3971886660
  H         2.0146789298        3.3139447633       18.7848039136
  H         3.8526159632        2.7229162948       20.4602592149
  H         5.7896937692        1.4028943202       19.6327015642
  H         5.7642615733        0.2023655290       17.5078385267
  C         3.1452865347        0.1490508632       13.1512204995
  C         2.1120421446       -0.6148917746       12.5197142742
  C         1.1295568573       -1.2316993044       13.2913763029
  C         1.2419954172       -1.2409107616       14.7122749027
  C         2.3184207801       -0.6525816587       15.3953306911
  C         5.3781442574        1.2766789376       13.1480700357
  C         4.2268885762        0.7329484087       12.4700800139
  C         4.2717303321        1.0762505651       10.9412641368
  C         3.4331840301        2.1368125426       10.4758995684
  C         3.3666043227        2.4837218591        9.1058315942
  C         4.1881277618        1.7452791499        8.2967541673
  C         5.0728419194        0.7738155771        8.7584917508
  C         5.1476039292        0.4214380714       10.0708912210
  H         5.9062222379       -0.2472556397       10.4885408287
  H         5.8217199272        0.4000628993        8.1038951226
  H         4.2111957018        1.9477504211        7.2002236174
  H         2.6452564734        3.1990386344        8.7525600806
  H         2.8770426845        2.6759053738       11.2436186140
  C         6.5081607851        1.8079343641       12.4347822637
  C         7.5227886446        2.5064450590       13.0465513697
  H         8.4303050466        2.8688646672       12.5422764711
  H         6.6888453702        1.5899168555       11.4191743102
  C         2.5308086408       -1.0327532096       16.8336327192
  C         3.4625207091       -2.0625018456       17.1433744394
  C         3.7667442374       -2.4668995570       18.3995278411
  C         3.0024672296       -2.0342675877       19.5227114548
  C         1.9138319334       -1.1662817949       19.2580488579
  C         1.6833710770       -0.6209302881       17.9625951283
  H         0.7550985579        0.0478591318       17.9101473893
  H         1.3376340071       -0.8695324728       20.1779980746
  H         3.1553624379       -2.5007496003       20.4767392770
  H         4.5506996575       -3.1889241190       18.5453480505
  H         3.9836840389       -2.5151034830       16.2888852415
  C         0.2531928781       -2.0558629530       15.4318662946
  C        -0.7532891232       -2.6169762469       14.7273971687
  C        -0.8585069941       -2.6527936086       13.3264472909
  C         0.0746028160       -1.9341990436       12.6067619252
  H         0.0325229786       -2.0272388510       11.5295216160
  H        -1.7447746418       -3.0975851066       12.8987816730
  H        -1.6612445554       -2.9236584790       15.3028298435
  H         0.2756909461       -2.1291469360       16.5441275794
  C         2.2010122862       -1.0545991681       11.1113257834
  C         3.1581657802       -2.0300000610       10.7274503350
  C         3.2824815644       -2.4690323495        9.4082866197
  C         2.3585754578       -2.0090641742        8.4498524963
  C         1.4041013404       -1.0030063930        8.8206715094
  C         1.3432079035       -0.5448382618       10.1259432836
  H         0.6545899204        0.2344104960       10.3390141839
  H         0.7523985878       -0.5490280412        8.1227679864
  H         2.2773033206       -2.3873488228        7.4870115391
  H         4.0111352417       -3.2428543594        9.1232482878
  H         3.8931371071       -2.4896675176       11.4561772094
  C        10.2493902189        0.0434562061       14.4719249256
  C        11.2721888379        0.8152603709       15.1858517146
  C        12.3108725018        1.4209042749       14.5430032537
  C        13.3139837276        2.1844576798       15.2869543359
  C        14.3956290081        2.8272636631       14.7419241011
  C        11.3252387833        1.0363375593       16.6953829381
  C        10.6303235315        2.1067460671       17.2752329363
  C        10.7931702110        2.4809562050       18.6505580810
  C        11.8105361544        1.8565187470       19.3915763854
  C        12.5130032338        0.7903857072       18.8320876511
  C        12.3031339899        0.4223588751       17.4804016934
  H        13.2280823248        2.2598238488       16.3286829907
  H        15.1841234580        3.2573355949       15.3437524209
  H         9.9199785472        2.6776149459       16.7106228066
  H        10.2096314726        3.2857981569       19.1097444367
  H        12.1493363412        2.1612357705       20.3375505082
  H        13.3178194258        0.3559948321       19.4133703397
  H        12.8736002043       -0.3824978711       16.9892123266
  C        10.3293688843        0.1578786108       12.9474654378
  C         9.4360860831       -0.7397710749       12.2702816627
  C         8.3806295269       -1.2955092043       13.0468758509
  C         8.1723419070       -1.2113932045       14.5426383795
  C         9.2145353534       -0.5555911104       15.2769657972
  C        12.3740957132        1.5167698709       13.0941594120
  C        11.3059656313        1.0236561963       12.2833737879
  C        11.3122769947        1.3952594657       10.7583829937
  C        10.5454026669        2.4730344974       10.2021948691
  C        10.5471973629        2.7046867672        8.8232402416
  C        11.4663069348        2.0045617946        8.0161023050
  C        12.2350904988        0.9369512418        8.5244739845
  C        12.1322368134        0.6029789725        9.8877696155
  H        12.7595945570       -0.2447635561       10.2977846977
  H        12.9153265890        0.4040747605        7.8954226002
  H        11.5253937090        2.2802910909        6.9944074124
  H         9.9255010683        3.5290468004        8.4067727881
  H         9.9341234650        2.9745547607       10.9237797652
  C        13.5163434336        2.1832010871       12.5102063028
  C        14.5623777373        2.6928158989       13.3056775731
  H        15.4667409685        3.0924300000       12.7954408487
  H        13.6752061545        1.9551867248       11.4481032218
  C         9.2368894691       -0.8095100101       16.7559886797
  C         9.9299013923       -1.9773680786       17.1495043943
  C        10.0329415550       -2.3897853095       18.4841725106
  C         9.2388566223       -1.7299897759       19.4065659047
  C         8.4095707056       -0.6608657234       19.0344095961
  C         8.4375989096       -0.1619475348       17.7038041712
  H         7.8832960014        0.7312435879       17.4326297886
  H         7.7118830406       -0.2899766292       19.8203564802
  H         9.3608636107       -2.0663585467       20.4189563394
  H        10.6873364794       -3.2005652023       18.8908135000
  H        10.5583585653       -2.3996357899       16.3476819135
  C         7.0887205535       -1.8695410409       15.1480613348
  C         6.1867868113       -2.5727109452       14.3682395325
  C         6.2744630646       -2.5412453788       12.9643836887
  C         7.2927703346       -1.9299454234       12.3215596836
  H         7.3354857046       -1.8985200038       11.2594315466
  H         5.5817125508       -3.0983800977       12.4237535369
  H         5.4421006947       -3.1759787178       14.8703771655
  H         7.0610573185       -1.8783220436       16.2596944336
  C         9.5608619505       -1.0501919905       10.8023653549
  C        10.5706589586       -1.9542477717       10.2559158648
  C        10.6140666473       -2.2859199897        8.8804513464
  C         9.5962468441       -1.7942469730        8.0264087039
  C         8.5632186713       -0.9935761973        8.5635202414
  C         8.6322513939       -0.4923854797        9.8589132430
  H         7.7787559899        0.1552625869       10.1108798584
  H         7.8605358775       -0.4920015523        7.9080366486
  H         9.5024025873       -2.0622925196        6.9910167636
  H        11.5003094311       -2.8319037838        8.5506336023
  H        11.3836978442       -2.2611679923       10.9037764359
