140

  C         4.2195086706       -0.1017922339       15.2682765000
  C         5.1570456768        0.6315080782       16.0124107860
  C         6.2809774859        1.1537737305       15.2863212773
  C         7.4748337472        1.5725565293       15.9502060071
  C         8.5080278869        2.0600891616       15.2461243955
  C         5.1551725512        0.9609558694       17.4658162648
  C         4.7364221934        2.1999208888       17.9458127092
  C         5.0445093534        2.6999019154       19.2240659472
  C         5.7793205747        1.9469279215       20.1924373595
  C         6.1651068849        0.6719250893       19.7499139632
  C         5.8815662051        0.2142981054       18.4385713693
  H         7.6465897352        1.4194562653       17.0314414805
  H         9.4254910894        2.2647510377       15.8112959804
  H         4.1146232864        2.8115019393       17.3333995545
  H         4.6641974182        3.6548037318       19.5959521102
  H         6.0246621771        2.4093957132       21.1318477739
  H         6.6923588445       -0.1092887582       20.3653747983
  H         6.0818991583       -0.8303931078       18.1927879190
  C         4.1955333759       -0.0339317161       13.7893067475
  C         3.1171634380       -0.8226888181       13.0841103827
  C         2.0763585650       -1.3696832338       13.7678047253
  C         2.1196427512       -1.3226578993       15.2806818236
  C         3.1679299123       -0.7401304941       15.9454633329
  C         6.2255696953        1.2439354092       13.8523958747
  C         5.1234104688        0.7850336861       13.1278169095
  C         5.1163875501        1.1829499086       11.7067588809
  C         4.1471829955        2.1296866049       11.2266717300
  C         4.1610125982        2.5848772864        9.8986247666
  C         5.0598806870        2.0024228589        9.0001295397
  C         5.9441763475        0.9883207490        9.4400301019
  C         5.9731703541        0.5820153988       10.7732314553
  H         6.7236609824       -0.1687656029       11.0353726002
  H         6.6739708256        0.5297137251        8.6966309479
  H         4.9330949276        2.2253841395        7.9193986286
  H         3.4191477740        3.3125472669        9.5561957824
  H         3.2810174973        2.3879451437       11.8393424268
  C         7.2266164742        1.9987365120       13.1854222255
  C         8.3596160173        2.3742844469       13.8846580898
  H         9.1568079312        2.9209084873       13.3865823613
  H         7.1289183447        2.3590645351       12.1717050025
  C         3.1375990625       -0.9886432396       17.4311611599
  C         3.7897051691       -2.1412052360       17.9840135680
  C         3.6948498851       -2.5117829983       19.3385437115
  C         2.9265943395       -1.7613174995       20.2166042420
  C         2.3632393762       -0.5243174491       19.7507226051
  C         2.3916484799       -0.2578542900       18.3487127180
  H         1.9169982163        0.6961849906       18.1161470447
  H         1.9819470527        0.1994511551       20.4525119893
  H         2.7167993330       -2.0270574226       21.2502966340
  H         4.0788643574       -3.4164076445       19.7104508908
  H         4.4873680670       -2.6422368610       17.3379877291
  C         0.8776879622       -1.9278801578       15.9377339470
  C        -0.0887050002       -2.5644447568       15.2503613459
  C        -0.0399741917       -2.6233547851       13.7836257211
  C         1.0006531156       -2.0621113324       13.0879936211
  H         1.1182242508       -2.3175395259       12.0642672114
  H        -0.7676098082       -3.2579288688       13.2454484112
  H        -0.8369359032       -3.0720649870       15.8172218878
  H         0.8683772217       -1.9625351049       16.9972695268
  C         3.2606449268       -1.0964632879       11.6311451491
  C         4.1955641409       -2.0654912543       11.1871971361
  C         4.2141537829       -2.4267298041        9.8594794250
  C         3.3015622860       -1.8995379844        8.9263722734
  C         2.3845305939       -0.9303310092        9.3874838370
  C         2.4271548995       -0.5046890931       10.7086330142
  H         1.8337693883        0.3434256416       10.9602349028
  H         1.7029625497       -0.4172214813        8.7179422822
  H         3.2488008978       -2.2115974152        7.9185855745
  H         5.0021156220       -3.0622627996        9.4690705391
  H         4.9438962100       -2.3776278196       11.8693895804
  C        11.4176488818        0.1008747261       15.2843907769
  C        12.4054955641        0.8568460974       16.0008504325
  C        13.3799338302        1.4333023523       15.2601294989
  C        14.5250931293        2.0469046828       15.9804828063
  C        15.6034048952        2.5251058105       15.2561498773
  C        12.3537935210        1.1845902262       17.5011508674
  C        11.7520510106        2.3615255500       17.9806285243
  C        11.8357246264        2.6433307370       19.3669611288
  C        12.5465890001        1.7417167538       20.2048181110
  C        13.1339831250        0.5824306817       19.6787823289
  C        13.0517633451        0.3422445520       18.3602407406
  H        14.4600711882        2.1087742628       17.0301777058
  H        16.4465988179        2.7913904708       15.8660668911
  H        11.1536699948        3.0020661196       17.2721766609
  H        11.1953627201        3.4408825885       19.7878455581
  H        12.5249261334        1.9094989048       21.2621920796
  H        13.5288354059       -0.1290921818       20.3738374133
  H        13.5972690555       -0.5284223127       17.9430059341
  C        11.2898127862        0.1773905406       13.8394288556
  C        10.2257801886       -0.5878589799       13.1453891670
  C         9.1135871133       -1.1475405698       13.8145108108
  C         9.2426069106       -1.2293164110       15.3127846273
  C        10.4282458926       -0.6791338022       15.9878742416
  C        13.3199598346        1.4533592094       13.7944074318
  C        12.2667452666        0.8246901910       13.1155967759
  C        12.2060235225        1.0650665437       11.6594762778
  C        11.4434869292        2.1802145535       11.2333337763
  C        11.6155368466        2.6625294598        9.9173456589
  C        12.6137629369        2.1079370299        9.0529630550
  C        13.2884682096        0.9796197073        9.4758473847
  C        13.1142415085        0.4561692611       10.7723347435
  H        13.5598582151       -0.4567416172       11.1313314757
  H        13.8502128607        0.4502052656        8.6541480924
  H        12.7927510836        2.5177180406        8.0800900571
  H        11.0297805953        3.5030902024        9.6259093741
  H        10.6342883146        2.5959558581       11.8046792404
  C        14.5208403774        2.0247933724       13.1639939750
  C        15.5935444706        2.5779784554       13.8466079287
  H        16.4475202834        2.7961426295       13.2381898440
  H        14.5729360762        1.9249185886       12.0523411777
  C        10.4276672867       -0.9163281539       17.4010976249
  C        11.1521666521       -2.0282994904       17.8040258960
  C        10.9943071301       -2.5166572494       19.1064284691
  C        10.2883099023       -1.7935440374       20.0777356667
  C         9.7361310586       -0.5740410781       19.6991648327
  C         9.7879928088       -0.1405402364       18.3591492834
  H         9.1548326049        0.7277757434       18.1841084892
  H         9.1713010249       -0.0732675635       20.4890491079
  H        10.1857474338       -2.2643990522       21.0374932457
  H        11.5524627477       -3.3965811074       19.3842769702
  H        11.7480189885       -2.5368100084       17.0355180347
  C         8.2075483828       -1.8263758891       16.0365838847
  C         7.1240851786       -2.4218153107       15.3906281964
  C         6.9640175105       -2.2671913094       14.0068620760
  C         7.9525927093       -1.6927415868       13.2090552383
  H         7.8617057200       -1.8032413489       12.1439189542
  H         6.0963497244       -2.7199119372       13.5349080097
  H         6.2940934579       -2.8816704536       15.9564921521
  H         8.1368488179       -2.1392704719       17.0867619911
  C        10.3433864106       -0.9530325221       11.6917583128
  C        10.8554232940       -2.2724180502       11.5242821859
  C        11.0497340156       -2.8676734969       10.2864605530
  C        10.5476475240       -2.1720294020        9.1464872263
  C         9.9551186694       -0.9718187229        9.2666378531
  C         9.8287175089       -0.3373661697       10.5247243238
  H         9.2842027448        0.5957905756       10.4866045281
  H         9.3381380297       -0.4881719069        8.4875827942
  H        10.6298661206       -2.6381745183        8.1610727770
  H        11.5036797392       -3.8548609008       10.1223005079
  H        11.1946868187       -2.7829484670       12.4063711299
