140

  C         3.6232536464        0.0108562951       14.5841510862
  C         4.5641245408        0.7712435638       15.2684920029
  C         5.6798015814        1.3827467227       14.6161007483
  C         6.6980174857        2.0641684866       15.3974304227
  C         7.7989734904        2.6011247909       14.7643313326
  C         4.3547073504        1.3604956508       16.5912128628
  C         3.4675298663        2.4283774972       16.7511869023
  C         3.3487785333        3.0979691602       18.0207374719
  C         4.0160471861        2.5658126671       19.1218997507
  C         4.9301285751        1.4785475807       18.9689516271
  C         5.1128242342        0.9141429982       17.6908601418
  H         6.5574309594        2.1524519028       16.4823232410
  H         8.5366819080        3.0660751844       15.3932906570
  H         2.9662442700        2.6247553641       15.8259634126
  H         2.5139091831        3.8111998246       18.1493419731
  H         3.8667549287        3.1199706010       20.0526395307
  H         5.5839068281        1.1651167841       19.7616536737
  H         5.6830355482        0.0312059370       17.5376177743
  C         3.6238458119        0.0396142262       13.0800285044
  C         2.5545654083       -0.6884078844       12.3660532887
  C         1.4619447715       -1.0465398128       13.1436192889
  C         1.4668692167       -1.0768470420       14.5554169849
  C         2.5711236077       -0.6739667907       15.2771695964
  C         5.7745077803        1.2486308330       13.2164582349
  C         4.7127802938        0.6402795478       12.4182733797
  C         4.6980815063        1.0564398553       11.0024132900
  C         3.6983142804        2.0719737546       10.6321145499
  C         3.5984328175        2.5737023791        9.3742268350
  C         4.5403518734        2.1999084259        8.4529112149
  C         5.4252954309        1.2533330291        8.7233262777
  C         5.5526412902        0.6427757278        9.9717698854
  H         6.3154511673       -0.0925052931       10.0781326241
  H         6.2509192649        1.0433175142        8.0102961098
  H         4.4041696064        2.5687125977        7.4311574094
  H         2.7638093724        3.2510567946        9.1223181841
  H         3.1713168899        2.5770427228       11.4051437221
  C         6.9460728230        1.8351161283       12.6195153727
  C         7.8776103111        2.5412111878       13.2955936217
  H         8.7070796853        3.0593067545       12.8167939372
  H         7.1032083396        1.9309038958       11.5490020839
  C         2.7339465721       -0.9701192832       16.7151938321
  C         3.6412272433       -1.9639625679       17.0252573635
  C         3.7044127285       -2.4860113772       18.2877048244
  C         2.8636726844       -2.0074898904       19.2915112614
  C         2.0618976763       -0.9505624738       19.0024430438
  C         1.9366403050       -0.4670941105       17.6835096182
  H         1.2457535137        0.3392379569       17.4333422372
  H         1.4045964794       -0.4434385993       19.7793903201
  H         2.8457097088       -2.3653141524       20.2680659831
  H         4.3942941874       -3.2934601854       18.4963024364
  H         4.2655205102       -2.3344218260       16.2242788575
  C         0.2613236176       -1.6218320791       15.2191475665
  C        -0.6952384246       -2.3354483011       14.5881062441
  C        -0.7227379072       -2.3823537181       13.1792851176
  C         0.2937208383       -1.7453238525       12.5233226657
  H         0.2449602585       -1.7617604820       11.4242240028
  H        -1.5635645019       -2.9273517478       12.6327113944
  H        -1.4834426061       -2.8295778162       15.1506565149
  H         0.1726739696       -1.3997845609       16.2858471130
  C         2.5082926000       -1.0079082812       10.9241831402
  C         3.5296148014       -1.8292582727       10.4712842866
  C         3.5402284923       -2.1860382239        9.1193180253
  C         2.6015402605       -1.6592830701        8.2346489704
  C         1.5313121394       -0.8781439023        8.6435587640
  C         1.5101038118       -0.5175161591       10.0139185938
  H         0.6723975924        0.0836546415       10.3599552807
  H         0.5932579705       -0.6234135035        8.0371303499
  H         2.8043160634       -1.9571349871        7.2001661939
  H         4.2373778912       -2.9079419885        8.7760568588
  H         4.1453214705       -2.2387347834       11.2438732267
  C        10.7888955187        0.0828791618       14.6442210382
  C        11.8079548506        0.7829746005       15.3366193517
  C        12.8788109374        1.4090563177       14.6309363855
  C        13.9286194088        2.1406979067       15.3324888057
  C        14.9360467568        2.7718395003       14.6510301760
  C        11.7300676699        1.0191247604       16.8257608260
  C        10.8968669679        2.0707305520       17.2444425829
  C        10.7006183071        2.3631607549       18.5912889295
  C        11.3765766111        1.6805790790       19.6652282065
  C        12.2336564051        0.6460856931       19.2257379608
  C        12.4619399688        0.3320464104       17.8438345642
  H        13.8276430191        2.2904730660       16.4248162334
  H        15.5961036183        3.3628760116       15.2670117367
  H        10.3736422581        2.6039076520       16.4739571400
  H         9.9987467724        3.1852486296       18.8377170671
  H        11.3491336445        1.8996660577       20.7155511034
  H        12.7131585030        0.1400932470       20.0982716657
  H        13.1889427111       -0.4682288519       17.6278142768
  C        10.8353574591        0.0229010365       13.1114023793
  C         9.8049121095       -0.6667469125       12.4162263772
  C         8.6796558770       -1.1782799806       13.1231394086
  C         8.5407257970       -1.0188559810       14.5893176232
  C         9.6428623269       -0.4827443037       15.3367089177
  C        12.9665684828        1.3565110586       13.2288274512
  C        11.8807430433        0.7688234476       12.4761330924
  C        11.8428122827        1.0064912320       10.9322110477
  C        11.1852631640        2.1467061122       10.4292057884
  C        11.0006223468        2.3484979296        9.0923097692
  C        11.6197233387        1.5435927155        8.1718104464
  C        12.4458051687        0.4939886982        8.6229386254
  C        12.5873882534        0.2347717654        9.9879740758
  H        13.1574151897       -0.6260913791       10.3860431106
  H        12.8814989074       -0.2689214094        7.9618020654
  H        11.4867379937        1.7520876239        7.0763721566
  H        10.4794760702        3.1890098227        8.7071257225
  H        10.7206576873        2.9143697830       11.1554708609
  C        14.1144935106        1.9878360209       12.5717177293
  C        15.0420568207        2.7503095408       13.2298156990
  H        15.9755362746        3.0475105761       12.7511863058
  H        14.2205387933        1.9154429369       11.5119480042
  C         9.8534695112       -0.9738937003       16.8074829783
  C        10.7010072829       -2.1037319969       17.0345715956
  C        10.7480329443       -2.6451172804       18.3409139538
  C        10.0579462215       -2.0528852648       19.4205316413
  C         9.1051016812       -1.0208318013       19.2047431114
  C         9.0133193206       -0.5459357690       17.8568670220
  H         8.3546307493        0.2895909842       17.6249970528
  H         8.5579518785       -0.4909209445       20.0215707054
  H        10.2559705961       -2.4079823166       20.4018858796
  H        11.4218739948       -3.5048923059       18.5631031586
  H        11.2766583523       -2.5126060932       16.1975906121
  C         7.4880483487       -1.7100598357       15.2838445053
  C         6.5752333473       -2.4334621468       14.6074353415
  C         6.6732130676       -2.5467452460       13.1598721927
  C         7.6640564165       -1.8961598788       12.4174059795
  H         7.6963815587       -1.9555037624       11.3607040156
  H         5.9453954540       -3.1571390763       12.6784711024
  H         5.8658915545       -2.9942581669       15.2064307219
  H         7.4557856565       -1.6064202584       16.3827185722
  C         9.7585374388       -1.1496591531       10.9595107459
  C        10.3341248484       -2.4013424973       10.6678318747
  C        10.1743371321       -3.0731894491        9.4625536923
  C         9.3264551386       -2.5272513650        8.4701937708
  C         8.8510952313       -1.1789417581        8.6848674101
  C         9.0197673087       -0.5267063414        9.9153211666
  H         8.4713678678        0.4243835472       10.0928313315
  H         8.1526351646       -0.7232561099        8.0355847034
  H         9.1652496959       -3.0753555590        7.5289884093
  H        10.6569544693       -4.0368296329        9.3424096162
  H        11.0546110636       -2.8027308998       11.3663596266
