140

  C         8.1018275706        8.6411965274        1.4832228416
  C         7.0041692079        9.2403493418        2.2571438013
  C         5.8524287100        9.6218456368        1.5364804381
  C         4.8616151730       10.3742133868        2.2577913210
  C         3.8207063903       11.0298441649        1.6438209819
  C         7.1136394655        9.5826072334        3.6817474682
  C         7.9923340766       10.5910436199        4.1071103135
  C         8.0553651297       10.9492109659        5.4782452427
  C         7.2168630016       10.3528090665        6.3984501492
  C         6.2546440493        9.3992711587        5.9995284766
  C         6.2779218524        8.9414335607        4.6558324762
  H         4.9652595545       10.3565634036        3.3296338111
  H         2.9898960620       11.5001462847        2.1781333660
  H         8.6772765800       11.1546621855        3.4834777387
  H         8.8668622573       11.6418716458        5.8172118050
  H         7.3529578024       10.7085861727        7.4273185724
  H         5.6015716093        8.9354981952        6.7072592745
  H         5.5413239943        8.1881574564        4.3905363124
  C         8.0648585371        8.5530299334        0.0076260220
  C         9.0943651394        7.8175638913       -0.6870102392
  C        10.2337638666        7.4011399569       -0.0094729106
  C        10.3094520932        7.5117517010        1.4870629060
  C         9.2183248471        8.0838016606        2.1939788344
  C         5.8117132238        9.6202915013        0.0807469686
  C         6.9569777343        9.1218899501       -0.6404037000
  C         7.0894234593        9.5156290205       -2.0757046476
  C         8.1011219996       10.3866935667       -2.4904600912
  C         8.2021707772       10.8636125264       -3.7704587255
  C         7.3628090033       10.4230991072       -4.7135999486
  C         6.3215086452        9.5416745288       -4.3256250747
  C         6.1357961111        9.1288336184       -3.0195761778
  H         5.3122566556        8.4422348064       -2.6533991860
  H         5.6051353148        9.1958315955       -5.1103821190
  H         7.4652460024       10.6413758113       -5.7990483709
  H         9.0887462864       11.3947599531       -4.1139634430
  H         8.7149517043       10.8336361821       -1.7450049780
  C         4.7305198134       10.3527349666       -0.5526108185
  C         3.7691770875       10.9654281902        0.2157098794
  H         2.9364393543       11.4070031723       -0.2781367742
  H         4.7697515186       10.4333366059       -1.6287993805
  C         9.2299079010        7.6693351005        3.6416413037
  C         8.3685110460        6.5920976877        3.9748198691
  C         8.3822748836        6.0152451628        5.2761014922
  C         9.2933210609        6.5358833662        6.2064841448
  C        10.1576948391        7.5269523006        5.8935063715
  C        10.0338551519        8.1967763653        4.6693931086
  H        10.8698598158        8.8672701560        4.4299277690
  H        10.8388705256        7.8439576099        6.6717509125
  H         9.2159986200        6.0377834289        7.1845992440
  H         7.6859132599        5.1816494347        5.3412668737
  H         7.7016144678        6.1034524604        3.2602236693
  C        11.3940574019        6.8736154873        2.1474629003
  C        12.3194251294        6.1904061168        1.3864952613
  C        12.2366374625        5.9923708364       -0.0152425882
  C        11.2242541916        6.5866594082       -0.6608715797
  H        11.0840611342        6.2867255052       -1.6853040069
  H        12.9618430740        5.4336233088       -0.5288670354
  H        12.9774354971        5.5526438118        1.9937578250
  H        11.5167270889        6.7283260278        3.2062743067
  C         8.9663393185        7.3364165034       -2.1160986078
  C         8.1660027077        6.2719520709       -2.5412455156
  C         8.2897073726        5.8166639338       -3.8525653615
  C         9.1297150052        6.4139603548       -4.7393501977
  C         9.9173788835        7.4960171214       -4.4166516486
  C         9.8148498923        7.9115868808       -3.0900247791
  H        10.5106141407        8.7494998442       -2.8289936001
  H        10.6591934154        7.9614194411       -5.1091811187
  H         9.2999749876        5.8614943283       -5.7209231920
  H         7.6933347298        4.8992083319       -4.1546621023
  H         7.5591685280        5.8051987569       -1.7720276844
  C        15.4426381616        8.3298390290        1.5393997758
  C        14.4139260572        9.0350078802        2.2480812951
  C        13.3743286487        9.6533523762        1.5689666971
  C        12.3617567642       10.3074034180        2.2753452698
  C        11.2557300219       10.8031646508        1.6147255012
  C        14.5265998258        9.2352715257        3.6838072828
  C        15.4389944866       10.1746565209        4.1896397917
  C        15.4370180916       10.4683649404        5.5714678642
  C        14.4313546348        9.9707026341        6.4014417637
  C        13.5333004254        9.0062217537        5.8947975928
  C        13.6126930970        8.6261317713        4.5733333349
  H        12.4977867895       10.3196139089        3.3925695454
  H        10.3672442716       11.0377006605        2.1568031328
  H        16.2321090823       10.7390019504        3.6617122277
  H        16.2844311626       11.0091733003        5.9325986524
  H        14.3631330782       10.2272921744        7.4391655234
  H        12.7275070504        8.5174018981        6.5325437863
  H        12.9798545349        7.8260667375        4.2821070436
  C        15.4227500461        8.4444247467        0.0616858067
  C        16.4398343596        7.6630130941       -0.7484655865
  C        17.5344880087        7.0757659096       -0.0127015542
  C        17.4946845942        7.0125174282        1.4438369633
  C        16.3880785495        7.5446493694        2.1596621125
  C        13.3226112890        9.6889845104        0.1072868087
  C        14.3590898544        9.1516991955       -0.6160702791
  C        14.4211380401        9.3956064872       -2.0283881624
  C        15.3497889726       10.3108803213       -2.5220826279
  C        15.4413233142       10.5537986372       -3.8874763008
  C        14.5296497612       10.0625023823       -4.7893101629
  C        13.5066924748        9.2044161267       -4.3456227202
  C        13.5128965719        8.8468360991       -2.9506404579
  H        12.8061024718        8.2009477179       -2.3724812396
  H        12.8928323860        8.6328929091       -5.0323582483
  H        14.7310136162       10.3107799080       -5.7960882279
  H        16.2484087488       11.1692430186       -4.2263596593
  H        16.0142747236       10.8322735211       -1.8254860970
  C        12.2190729455       10.3525267318       -0.5191036302
  C        11.2076019188       10.9286280300        0.1672252980
  H        10.5040317554       11.5906866287       -0.3831509121
  H        12.2511326986       10.4286216248       -1.6007563952
  C        16.2937936043        7.0708596437        3.5365052412
  C        15.2841097859        6.1378597954        3.8864391612
  C        15.1925445164        5.6261507668        5.1581107921
  C        16.0031215112        6.0986836835        6.2111429270
  C        16.8708402963        7.1596436341        5.9052542199
  C        17.1268046502        7.5431921366        4.6012875638
  H        17.7836562061        8.3385228046        4.4158257080
  H        17.4604219309        7.6552194799        6.6489924546
  H        16.0108650311        5.7021467203        7.2264422450
  H        14.5354380379        4.7769482753        5.3590354782
  H        14.5528308912        5.6847054571        3.1454867713
  C        18.5998059969        6.3580740622        2.0612135799
  C        19.7089499840        5.9172480182        1.3535493831
  C        19.8059467183        6.1749284248       -0.0336509116
  C        18.6941640113        6.5541760962       -0.6724079638
  H        18.6591046586        6.6026829010       -1.7345888125
  H        20.6667049038        5.7624818262       -0.5360547059
  H        20.4935287074        5.4174745068        1.9505859444
  H        18.6469879374        6.1245661454        3.1254328644
  C        16.4414977101        7.3066594205       -2.1954312860
  C        15.7453345527        6.1032657103       -2.5473917455
  C        15.8208446748        5.6591540312       -3.8749445252
  C        16.5713046929        6.3263357763       -4.8299650674
  C        17.2560788142        7.5160076640       -4.4859107393
  C        17.2677005597        7.9840212972       -3.1668850395
  H        17.7674789228        8.9945057498       -3.0379399051
  H        17.8418571778        8.0345320841       -5.2653289778
  H        16.6667505744        5.9041653075       -5.8460217092
  H        15.3090670788        4.7346515251       -4.2268150807
  H        15.3368673250        5.4769074710       -1.7677666542
