140

  C         3.5720244780       -0.0382166727       14.4446156663
  C         4.6692756436        0.6866155453       15.1953057585
  C         5.8026474571        1.1670841086       14.4806073632
  C         6.9519314892        1.7331056251       15.1959863957
  C         8.0499923034        2.2587253488       14.4790486905
  C         4.5818917138        0.9261496525       16.7045407515
  C         3.6314907789        1.7826172818       17.2585223241
  C         3.5644943850        2.1716184553       18.5598404711
  C         4.4289300744        1.6502997475       19.5036132592
  C         5.3590605016        0.6983585403       19.0517961840
  C         5.4321397352        0.3429956807       17.6694286280
  H         6.8743951215        1.7884682997       16.2882740011
  H         8.9959889998        2.6426541740       14.9041292086
  H         2.9888816474        2.2936788159       16.5191804939
  H         2.7843612666        2.8488936997       18.8054380909
  H         4.4526106917        1.8739675718       20.5424880800
  H         5.9803020602        0.0977867509       19.6993969715
  H         6.1392295084       -0.4441912474       17.3694482976
  C         3.6041319726        0.0621999469       13.0208094859
  C         2.6140741194       -0.6470041966       12.2594256752
  C         1.5124869149       -1.2560166145       12.9065141144
  C         1.4392636155       -1.2296729757       14.3253976112
  C         2.4748039213       -0.7040349829       15.1152382822
  C         5.7743029659        1.2582797885       13.0004425138
  C         4.6688313989        0.7572608998       12.2643544791
  C         4.5892718189        1.0517903511       10.8414835554
  C         3.8812555475        2.1416693245       10.3731738658
  C         4.0306645302        2.7161361329        9.1072975097
  C         4.9614933057        2.1085952375        8.1940482754
  C         5.7046803251        1.0126881051        8.6618852631
  C         5.5422916735        0.4753932498        9.9328609447
  H         6.1294827749       -0.3986280187       10.3421674590
  H         6.5197594245        0.6640098283        8.0166560692
  H         5.0366798415        2.4798371008        7.1885563367
  H         3.3860706434        3.5749433183        8.8687201245
  H         3.2360429295        2.6865524823       11.0817833524
  C         6.9195464688        1.8443236108       12.3421923635
  C         8.0201907851        2.2722992379       13.0767562635
  H         8.8730477753        2.6996239992       12.5719324189
  H         7.1083470026        1.8832448759       11.2753360674
  C         2.4836383413       -1.0852516538       16.5128048652
  C         3.2657092671       -2.1214600411       16.9141725103
  C         3.1825983272       -2.7362178680       18.1607570746
  C         2.2923524826       -2.2331499256       19.1495003944
  C         1.5060913081       -1.1355368890       18.7546461108
  C         1.6274975146       -0.4774970757       17.5155842893
  H         0.9786568738        0.3826632199       17.4437639835
  H         0.6992783145       -0.8767351864       19.4254418119
  H         2.1503328387       -2.7156152532       20.1027554666
  H         3.8063448703       -3.6165409340       18.2512580593
  H         3.8457972693       -2.5407329520       16.1708684413
  C         0.3245793933       -1.8724325844       15.0097889414
  C        -0.7001268140       -2.4461615692       14.3083850245
  C        -0.5648506521       -2.5027129334       12.8881309254
  C         0.4427019813       -1.9182376566       12.2585979863
  H         0.4304060213       -1.9330934463       11.1741520770
  H        -1.4084561895       -2.8516269480       12.2160391689
  H        -1.6359243875       -2.6565638701       14.7388606387
  H         0.1726464943       -1.7468716405       16.0755747683
  C         2.7233440887       -0.9441699816       10.7926136005
  C         3.4626990849       -2.0702130859       10.3477256566
  C         3.3152081776       -2.5817307173        9.0866223802
  C         2.3839710083       -2.0030499410        8.1256246332
  C         1.7812382477       -0.8550414902        8.5146340683
  C         1.9014521720       -0.3575968179        9.8861733255
  H         1.3100635476        0.4839455416       10.2093490222
  H         1.0469103820       -0.3335382063        7.8980069398
  H         2.4626497444       -2.3605275619        7.0616580515
  H         3.9269261701       -3.4009685005        8.8189193194
  H         4.0944321893       -2.5606236973       11.0712568605
  C        10.9850729752        0.0318010664       15.1075564634
  C        11.9545958954        0.8421032799       15.7076888973
  C        13.0775296631        1.3846948305       15.0344177448
  C        14.1723065393        2.0952337647       15.6718280509
  C        15.2077905011        2.6256636473       14.8932253523
  C        11.7877369755        1.2500353862       17.2005734683
  C        10.8213985498        2.2290321641       17.4129801619
  C        10.6580131153        2.7180045739       18.6987624872
  C        11.5348355566        2.2743823636       19.7403795738
  C        12.4865636942        1.3193698839       19.5400966313
  C        12.6195920788        0.8117083459       18.2507944295
  H        14.1856056023        2.0691961864       16.8024465445
  H        16.0187696453        3.1630686565       15.4516447993
  H        10.1566254031        2.4233850203       16.5887100164
  H         9.9737513832        3.5483306372       18.8872836723
  H        11.3143330023        2.6200614461       20.7221458781
  H        13.0885688410        0.8601319955       20.2963890188
  H        13.3718663046        0.0599931366       17.9690099149
  C        10.9126982870        0.0209533821       13.5963107654
  C         9.7793907152       -0.5540842333       12.9172303892
  C         8.6424831072       -1.0527055109       13.6834600192
  C         8.7094370142       -1.0993525711       15.1150541884
  C         9.8948828077       -0.6320325627       15.7986981236
  C        13.0674714946        1.2465438231       13.6065388990
  C        11.9097376264        0.7305391441       12.9209372278
  C        11.9058928769        1.0416697501       11.4520865818
  C        11.1695234337        2.1507941266       10.9906255953
  C        11.0475927314        2.5120492437        9.6676899264
  C        11.8306378412        1.8500351378        8.6966052106
  C        12.5423594848        0.7209986592        9.0619415540
  C        12.5970649290        0.3691536778       10.4474123312
  H        13.2276453539       -0.4547217592       10.7786316232
  H        12.9604845337        0.0027310689        8.3494409407
  H        11.7987307974        2.1509955176        7.6798173416
  H        10.4036967860        3.3588480470        9.3614105773
  H        10.6691249265        2.7503475843       11.7557681658
  C        14.0900625348        1.9252938853       12.8583325956
  C        15.1608383603        2.5029206384       13.4751896432
  H        15.9553354039        2.9535200172       12.9001978870
  H        14.0873713283        1.9312449614       11.8008292380
  C        10.1076639990       -1.0900634309       17.1670494331
  C        11.1120477327       -2.0342582335       17.3761831991
  C        11.3273251339       -2.7555922752       18.5669166765
  C        10.4514709856       -2.6054039165       19.6236641806
  C         9.4218122016       -1.7009859994       19.4949569487
  C         9.2230391530       -1.0037599570       18.2631694728
  H         8.4374896851       -0.2445144383       18.2168262412
  H         8.7097349581       -1.6127414973       20.3102515969
  H        10.6762727661       -3.1881350422       20.5025786042
  H        12.1373248588       -3.4976437744       18.5686713868
  H        11.8621044875       -2.1190753186       16.6034318964
  C         7.5773330173       -1.8199041192       15.7351090415
  C         6.5699690822       -2.4608252906       14.9817158179
  C         6.4339000795       -2.1810406447       13.5890083059
  C         7.4767234460       -1.5375396397       13.0143052048
  H         7.4663493793       -1.4281632603       11.9289518557
  H         5.6318305887       -2.5881425739       12.9594911167
  H         5.8664050376       -3.1100392334       15.5066768835
  H         7.5591898371       -2.0149746691       16.7801972943
  C         9.9410837509       -0.9465942593       11.5075439138
  C        10.6256715009       -2.1372318287       11.1337469380
  C        10.7966185248       -2.5271160530        9.8189213616
  C        10.1482190952       -1.7919125230        8.7785070852
  C         9.3047676664       -0.6860258474        9.1683409751
  C         9.2123335912       -0.2387699616       10.4966910195
  H         8.7718868071        0.7213720930       10.7028681992
  H         8.8496210354        0.0193372237        8.4423382607
  H        10.4574293490       -2.0193186269        7.7660852708
  H        11.3978903368       -3.4195780108        9.5900261297
  H        11.2983487682       -2.4853327699       11.9296283032
