140

  C        12.1940926274        7.1338163508        2.3392512929
  C        11.1167964056        7.7461200806        3.0798305631
  C         9.9843830250        8.2584290252        2.4637932350
  C         8.9612410491        8.9368463019        3.1661896636
  C         7.9190523629        9.5818146422        2.5315819691
  C        11.2331390546        8.1450892276        4.5237140224
  C        12.0227060661        9.3083770145        4.7590106373
  C        12.1050116662        9.9162924635        6.0050690445
  C        11.3420819886        9.3479297769        7.0769305358
  C        10.5679194429        8.2194387278        6.8959259348
  C        10.5518878929        7.5480217968        5.6078400642
  H         9.0284881572        8.9020495287        4.2083280414
  H         7.1636752556       10.0561534912        3.1289196941
  H        12.4685503974        9.7803372171        3.9634734319
  H        12.7255914256       10.8151605367        6.2602439824
  H        11.5108261348        9.8038096137        8.0688111780
  H        10.0485992444        7.7643110440        7.7212830297
  H         9.9234869369        6.6562287750        5.4872933008
  C        12.1696532333        7.2516853507        0.8164047698
  C        13.1917638638        6.5531096528        0.1072491258
  C        14.2388665002        5.9558632412        0.7925586718
  C        14.4011666488        6.0731250713        2.2053541439
  C        13.2471510751        6.4203548454        2.9454783832
  C         9.9589455841        8.3577971384        0.9783125183
  C        11.0963876862        7.9622917449        0.3191497158
  C        11.1694295550        8.4939719104       -1.0815667414
  C        12.0810412951        9.4512657340       -1.4606651635
  C        12.1472141123        9.9570341310       -2.7427020016
  C        11.4004186440        9.3297112898       -3.7685279245
  C        10.5258274036        8.3410582054       -3.3406629160
  C        10.4437156474        7.9116218473       -2.0853314447
  H         9.8283736252        7.0458485462       -1.8736672720
  H         9.8525717072        7.8114177988       -4.0749172575
  H        11.5091668850        9.5123642668       -4.8336488200
  H        12.9065955460       10.7248403224       -2.9187264914
  H        12.6514032564        9.9251869969       -0.6964613036
  C         8.8750629544        9.0356123248        0.3957661621
  C         7.8804814085        9.6562189489        1.1387436292
  H         7.1816609831       10.3410198896        0.6290426318
  H         8.8902361270        9.0874481956       -0.6469685262
  C        13.0926539979        6.0761427326        4.3800115219
  C        12.2968614587        5.0103176093        4.8514303252
  C        12.2344037646        4.7553628947        6.2567419257
  C        12.9957851480        5.4749473292        7.1888498907
  C        13.6089204368        6.6063771816        6.6720601492
  C        13.8140479089        6.9049288212        5.2851638800
  H        14.3875731617        7.7833387030        4.9520525373
  H        14.1870002430        7.1840203079        7.3466409632
  H        13.0674355155        5.2319083659        8.2627161862
  H        11.6536615931        3.9050529486        6.5383026873
  H        11.7675378094        4.3629199081        4.1658827962
  C        15.5987907240        5.6063332420        2.7924855981
  C        16.4330790615        4.7196315544        2.1392411341
  C        16.1494617087        4.4305871152        0.7848575594
  C        15.1359455380        5.0908048448        0.0856444959
  H        15.1071156744        4.9928177630       -0.9613957498
  H        16.7419961232        3.6586640145        0.2612111408
  H        17.3427055758        4.3095828301        2.6188365412
  H        15.7876390397        5.7591833654        3.8503760035
  C        13.0069789811        6.2779762034       -1.3189187134
  C        12.2518753670        5.1505802256       -1.6841935879
  C        12.2713772693        4.6517260174       -2.9940977268
  C        13.1161089216        5.2171978614       -3.9911304192
  C        13.8282424469        6.3595185805       -3.6178138989
  C        13.8185819579        6.8708495985       -2.3247270411
  H        14.4086593623        7.7571293275       -1.9838567115
  H        14.3571427831        6.9084452023       -4.4170238915
  H        13.1491008837        4.7882144504       -4.9681322080
  H        11.6895981744        3.7627772691       -3.2356789276
  H        11.6287654785        4.7632877691       -0.9340699159
  C        19.3156371294        7.2791188987        2.8932468923
  C        18.3044627536        7.9352885192        3.7114118160
  C        17.1415029635        8.3848681055        2.9873887116
  C        16.1927535484        9.2338411557        3.7570395856
  C        15.1645729391        9.8801585866        3.1410492398
  C        18.3917201430        8.3323201947        5.1290317957
  C        19.3050757206        9.3797194622        5.3891388811
  C        19.1979841145        9.9905377924        6.6562125823
  C        18.5067939960        9.4549834550        7.6884729469
  C        17.6873643227        8.3653989627        7.4715966499
  C        17.5701122519        7.8369501055        6.1870055077
  H        16.4140071606        9.3365256460        4.8236530040
  H        14.5192164713       10.5395629444        3.6714095526
  H        19.8564671013        9.8990828241        4.6048646575
  H        19.7083088534       10.9184313079        6.8096044567
  H        18.6310308570        9.9238124304        8.6619087848
  H        17.1237402725        7.9564203396        8.3388374514
  H        16.9701495966        7.0174035457        5.8825570393
  C        19.1657265485        7.3669368281        1.4239764993
  C        20.1822024608        6.7097847803        0.6948430019
  C        21.2898524091        6.0534610296        1.3212761629
  C        21.4339521743        6.0554878856        2.7319796087
  C        20.3724867793        6.6019381507        3.4691347934
  C        17.0617725405        8.5214819901        1.5350584176
  C        18.1505058258        8.1159583530        0.7916375091
  C        18.1220669588        8.4026275262       -0.6794956212
  C        18.9910035476        9.3853957313       -1.2289110925
  C        18.9545526506        9.6247859298       -2.6064638448
  C        18.1806944826        8.8476031426       -3.4506745549
  C        17.2644705117        7.9521618196       -2.9158233920
  C        17.1618974635        7.7601621785       -1.5219607335
  H        16.5305363828        7.0253326608       -1.0868671198
  H        16.6647561570        7.3205491819       -3.5693176084
  H        18.3967717999        8.8793589278       -4.5384653557
  H        19.5850686168       10.3686375319       -3.0238592131
  H        19.7686265844        9.7824020984       -0.6582334295
  C        15.9300157247        9.1786245812        0.9947465738
  C        14.9653735311        9.7561744379        1.7614149406
  H        14.0861320271       10.2379264704        1.3594325715
  H        15.9138025511        9.3147023843       -0.0982943131
  C        20.2937428207        6.2206903339        4.9879075285
  C        19.2966812383        5.1901382482        5.2900818436
  C        19.1619944450        4.7830168233        6.6169136522
  C        19.9260011234        5.2756965479        7.6812051646
  C        20.7840975178        6.2647467422        7.4078326498
  C        20.9248561736        6.7766986501        6.0995534073
  H        21.4929835390        7.7011162803        5.9427581228
  H        21.3410617158        6.8426889048        8.1553091564
  H        19.7737708460        5.0643342914        8.7518162154
  H        18.5487503509        3.9108285854        6.8165963703
  H        18.8957541951        4.7051763649        4.4039581457
  C        22.5344041483        5.3424728178        3.3660402474
  C        23.4468027344        4.6860850257        2.5994093000
  C        23.3421719452        4.6307359788        1.1655665033
  C        22.2486067887        5.2850071176        0.5710158478
  H        22.2622599882        5.4138806309       -0.5219989599
  H        24.1803976898        4.1963850495        0.6135026186
  H        24.3841976699        4.2452246494        3.0274432278
  H        22.5956009036        5.5047187664        4.4261478399
  C        20.1454949999        6.4699532981       -0.8403192103
  C        19.4732698427        5.3764211132       -1.3716602900
  C        19.7448057897        4.9096322489       -2.7007736663
  C        20.5732200299        5.7064717600       -3.4926834492
  C        21.0901892328        6.9023288860       -2.9767050707
  C        20.9750049432        7.3039214094       -1.6618506339
  H        21.5109674487        8.1680019804       -1.2629018611
  H        21.6932466617        7.5793192259       -3.6179481162
  H        20.7073388008        5.3589143884       -4.4903590149
  H        19.3583212920        3.9366491243       -3.0774692968
  H        18.9207217041        4.7921711476       -0.6952912879
