140

  C        12.7273673954        6.5325796268        2.7487678342
  C        11.7059240596        7.2557761279        3.4476934912
  C        10.6230102944        7.7594640741        2.7878125034
  C         9.5709735076        8.4048758460        3.4923061176
  C         8.6105589511        9.1672087754        2.8744816402
  C        11.8593624298        7.6829017455        4.9116367917
  C        12.8336278506        8.6393614531        5.1186223378
  C        13.0157607318        9.2369827712        6.3743410296
  C        12.1569418534        8.8216678782        7.4501301298
  C        11.3049299296        7.7921995372        7.2286178376
  C        11.1624268536        7.1373209439        5.9884628195
  H         9.7077229394        8.4065426106        4.5540250067
  H         7.8630509507        9.6730864356        3.4289808430
  H        13.3871872225        9.0221534471        4.2591807374
  H        13.9522174173        9.8838228821        6.5909325620
  H        12.2780681308        9.1468527125        8.4350958795
  H        10.6255621880        7.5151044137        8.0349855834
  H        10.5398406636        6.2257490399        5.8031410107
  C        12.7425068630        6.4935946844        1.2257516856
  C        13.8912150313        5.8595599433        0.6279076852
  C        14.9829955422        5.3357587039        1.3796274740
  C        14.8701356666        5.2704714186        2.8165071016
  C        13.7351441270        5.7364643173        3.4809865911
  C        10.6372255178        7.7864052288        1.3230483818
  C        11.7193050370        7.2063819061        0.5650376179
  C        11.8222160514        7.5984219034       -0.9335662662
  C        12.4988590919        8.7626089081       -1.2964677424
  C        12.3991957525        9.3488556300       -2.6174155747
  C        11.5184439419        8.8452089151       -3.5354318470
  C        10.8646426529        7.7070381142       -3.1544854884
  C        10.9994864883        7.0826155775       -1.9225625820
  H        10.3725678160        6.2117086405       -1.7188330289
  H        10.1999031404        7.2736749618       -3.8482929392
  H        11.2625195928        9.2527463732       -4.5751734415
  H        12.9592207595       10.2970608283       -2.8289733458
  H        13.2412017418        9.1403264690       -0.6436649438
  C         9.6660221913        8.6124551909        0.7030213733
  C         8.7012099346        9.2177283380        1.4537566785
  H         7.9789805823        9.9068181870        0.9864702719
  H         9.5630573780        8.6618852647       -0.3547313119
  C        13.6845065264        5.3991677695        4.9718808222
  C        12.7864222893        4.4240235981        5.4981762389
  C        12.7416521093        4.0971047251        6.8765026012
  C        13.5973636874        4.7370461138        7.7839892622
  C        14.3808708801        5.7500711537        7.2640802270
  C        14.4650607505        6.1212762006        5.9024435615
  H        15.1891047230        6.8840205951        5.6309786986
  H        14.8896478020        6.4765394136        7.9196957573
  H        13.5453545839        4.6238505277        8.8809562015
  H        12.0995651166        3.2782746249        7.1664555709
  H        12.1304550209        3.9532193936        4.7789381808
  C        15.9382044615        4.4330520400        3.4750371134
  C        17.0013991522        3.9651702807        2.6819906784
  C        17.0728186735        4.1483675121        1.2825064677
  C        16.0730467916        4.8191929863        0.6348253225
  H        16.2416958807        5.0625956955       -0.3971661632
  H        17.8093749862        3.7067293334        0.6182284342
  H        17.7973925857        3.5111985033        3.2746201010
  H        15.7160095626        4.1342408901        4.5079830118
  C        14.0666403170        5.6576864673       -0.8534904955
  C        13.2849599625        4.6182608169       -1.3967441185
  C        13.3917166594        4.2406134960       -2.8088149994
  C        14.2258996879        5.0192353489       -3.6524222745
  C        14.9082939109        6.1430589098       -3.1112569640
  C        14.8730418172        6.3929606664       -1.7293921988
  H        15.5564242571        7.2393632979       -1.3926812757
  H        15.4462080203        6.7275849860       -3.8182241616
  H        14.3067017471        4.7228430072       -4.6788000780
  H        12.7719834004        3.4399963383       -3.2058167573
  H        12.5184358989        4.0698013951       -0.8175328946
  C        19.7285856770        6.4970179303        2.4874054308
  C        18.5976394259        7.1363268786        3.1219999658
  C        17.5877974784        7.6811459303        2.3039303315
  C        16.5062850986        8.4042178364        2.9192693344
  C        15.7035891668        9.2714604759        2.2035063199
  C        18.6458740693        7.6091386702        4.5407525091
  C        19.4679229966        8.7215851717        4.9203578618
  C        19.3613375543        9.2698602197        6.2727074467
  C        18.4481152746        8.7091300370        7.1828582260
  C        17.7972657746        7.5317247507        6.8460495306
  C        17.8820230765        7.0332186262        5.5445881162
  H        16.1800168244        8.3205840248        3.9780191499
  H        14.9055018295        9.8311390998        2.6428315549
  H        20.2026274613        9.0081169061        4.2113466516
  H        20.1087177082       10.0460394770        6.5625353142
  H        18.4134489680        8.9383957438        8.2633785409
  H        17.2076718118        7.0266013837        7.5734446418
  H        17.3234130161        6.1787263874        5.2409202389
  C        19.8448589539        6.4925897307        1.0078623371
  C        20.8712029433        5.7367565077        0.3901724962
  C        21.9704751199        5.3614333690        1.1840091524
  C        21.9704896110        5.5382628682        2.5897746041
  C        20.8325508148        5.9827916999        3.2222659234
  C        17.7024191821        7.7543442286        0.8979896167
  C        18.7977896700        7.2313715722        0.2924669674
  C        18.9815197752        7.7032470757       -1.1528598398
  C        19.8212172872        8.8651018100       -1.3070559171
  C        19.8533537349        9.5713906079       -2.5247654396
  C        19.0971122138        9.0543079769       -3.6077604002
  C        18.2707542733        7.9237423606       -3.4681355099
  C        18.2623141260        7.2504059031       -2.2783508793
  H        17.5415676093        6.4519960710       -2.2540265342
  H        17.7876699647        7.5738859711       -4.3647149642
  H        19.1589147044        9.4432414963       -4.6328561981
  H        20.3946239269       10.4845499362       -2.6711590059
  H        20.3275432785        9.1565095321       -0.4252225359
  C        16.8711706812        8.6920318065        0.1722966545
  C        15.8876292306        9.4289981896        0.7680911489
  H        15.1654256712        9.9716491688        0.1123885851
  H        16.9381165162        8.7944809495       -0.9312671785
  C        20.8234837908        5.7261089286        4.7041209195
  C        20.3093340292        4.5086833623        5.1120327971
  C        20.3749807743        4.1059331664        6.4146769010
  C        20.9730627553        4.9422936600        7.4483083585
  C        21.5351115372        6.1867021054        7.0432414867
  C        21.4491902286        6.5320971877        5.7172654329
  H        21.9155961637        7.4634663822        5.4335778723
  H        22.0369850072        6.8040069892        7.7460572012
  H        21.0765863511        4.5510933772        8.4548454521
  H        19.9368272964        3.2059696178        6.6843536014
  H        19.8855080233        3.8896001550        4.3436055754
  C        23.1941739373        5.2989159729        3.2904046914
  C        24.2550268046        4.6840486314        2.6315837251
  C        24.1978752868        4.2539549226        1.2544508803
  C        23.0889166600        4.7029740586        0.5561938797
  H        22.8501211356        4.4462914617       -0.4785976237
  H        24.9829298908        3.6521992957        0.8441900716
  H        25.1123294827        4.3446704831        3.2162779656
  H        23.2564993696        5.5739884683        4.3271944712
  C        20.9200935395        5.4883169893       -1.0932827581
  C        20.1057510822        4.5456241783       -1.6631231251
  C        20.1539695254        4.2216421392       -3.0408369782
  C        21.0661319042        4.8715831340       -3.8235804339
  C        21.9520791317        5.8033777615       -3.2433283411
  C        21.8293516103        6.1694520187       -1.9183520825
  H        22.3460467696        6.9665782648       -1.3916524823
  H        22.6435800036        6.4193985498       -3.8586883471
  H        21.0267053846        4.6353987937       -4.9293614747
  H        19.3928668109        3.4316838481       -3.2981003837
  H        19.4536805742        3.9387600884       -1.0360398146
