140

  C        10.7081937722        7.1963476700        1.2773517857
  C         9.7530946098        8.0205654007        2.0379845394
  C         8.5855637887        8.5571332433        1.3422616467
  C         7.6121512617        9.4553394136        1.9534351495
  C         6.5509998646        9.9724571249        1.2628530028
  C         9.9855707908        8.4222788450        3.4040343997
  C        10.7256535882        9.5869530038        3.7780878684
  C        10.5979613000       10.1613077147        5.0368487268
  C         9.7963137790        9.6246346099        6.0367271397
  C         9.1011635702        8.4308039300        5.7587769511
  C         9.2106803101        7.8505515183        4.4103644345
  H         7.6271379670        9.5331278235        3.0628306082
  H         5.7298240061       10.5502081566        1.7865606721
  H        11.3131856065       10.1175024350        2.9760229729
  H        11.1765189059       11.0972806396        5.1095535784
  H         9.8040492017       10.2198569850        6.9974051801
  H         8.3784876432        7.8754892600        6.4523388560
  H         8.5517503602        7.0765317996        4.2327483593
  C        10.6684137683        7.1776975165       -0.1987392389
  C        11.6895540373        6.4984190928       -0.9264760403
  C        12.8347765122        5.9458478106       -0.2490689872
  C        12.8443955748        6.0366315288        1.2596418233
  C        11.7387564294        6.5452211934        1.9235685137
  C         8.5107754886        8.3996196925       -0.1841948845
  C         9.6462491737        7.9039922863       -0.8612270513
  C         9.6448960235        8.2454184460       -2.3472992052
  C        10.4494802244        9.2900462227       -2.7834213937
  C        10.4118515832        9.6933160110       -4.1094097768
  C         9.6817344122        8.9401800830       -5.0172621528
  C         8.8799299300        7.8816587083       -4.6100600500
  C         8.8364657001        7.5610335210       -3.2464718594
  H         8.2634938578        6.6598930730       -2.8907424120
  H         8.3062059727        7.2836117681       -5.2876398092
  H         9.8669825078        9.0283891992       -6.0850856590
  H        10.9514895186       10.5825818497       -4.4471917674
  H        11.0149908936        9.7701757243       -2.0143908090
  C         7.3438096610        8.9403697746       -0.8374206058
  C         6.4371176630        9.6989765652       -0.1862343857
  H         5.5647021981       10.1500686129       -0.7163061885
  H         7.2635988906        8.6859272927       -1.9283612951
  C        11.8009610604        6.2260050837        3.4132404257
  C        10.9048326056        5.3195580892        3.8817014518
  C        10.9216264828        4.8425684872        5.1874076972
  C        11.8384380664        5.3906493940        6.0863562290
  C        12.7888964965        6.3329651323        5.6280012638
  C        12.7150760604        6.8058665098        4.2932700058
  H        13.4863805320        7.4961013735        3.9447896898
  H        13.5398172284        6.7955073258        6.2454294100
  H        11.8864186244        5.1783165463        7.1631164426
  H        10.2690035504        4.0516827069        5.5223209652
  H        10.1809529307        4.9471331973        3.1928013556
  C        13.9600900697        5.3370868489        1.8877453232
  C        14.8476899900        4.6060789744        1.1059472586
  C        14.8509499055        4.5910611462       -0.3436514350
  C        13.8125759161        5.2493810232       -1.0153896026
  H        13.7354716859        5.3255743038       -2.1218206283
  H        15.6577639379        4.1597362218       -0.9144547448
  H        15.6736835764        4.1103212786        1.6449481969
  H        14.0668187695        5.2220315901        2.9765005823
  C        11.4793997512        6.0359746508       -2.3450146927
  C        10.6122428515        4.9447145834       -2.5131076268
  C        10.4960326823        4.3423207008       -3.7782659290
  C        11.1254755841        4.8911693277       -4.9078055307
  C        12.0761099761        5.8934147192       -4.7237822022
  C        12.1692581224        6.5172887878       -3.4263720812
  H        12.8710277325        7.3436469715       -3.2957941833
  H        12.7650638669        6.2047827514       -5.5090693328
  H        11.1339753653        4.3530914877       -5.8349130550
  H         9.8036150386        3.5228442487       -3.7703443566
  H        10.0890802082        4.4982731822       -1.6622870607
  C        17.8603689081        7.3057500501        0.9690391851
  C        16.7330747509        7.9164973523        1.6109423667
  C        15.6559429461        8.4015356776        0.8797175602
  C        14.5509171502        9.0285067261        1.5405770871
  C        13.6852628277        9.8316333152        0.8701873298
  C        16.8714463547        8.2554084376        3.1244165085
  C        17.6781386560        9.3993339387        3.4302867904
  C        17.6444212552        9.8417162721        4.7597507684
  C        17.1280048819        9.0219294038        5.7422199966
  C        16.4979506699        7.8499408636        5.4673852626
  C        16.2923307639        7.4407546554        4.1403814305
  H        14.5446853553        9.0862588257        2.6193374865
  H        12.7981023492       10.2772815726        1.3229728874
  H        18.1651003280        9.9328454242        2.5791529874
  H        18.2107219170       10.7551232869        5.0930110637
  H        17.2414099515        9.3417453433        6.7504028441
  H        16.2119505961        7.0912207329        6.1859652922
  H        15.8006599409        6.5076801346        3.9192837653
  C        17.7987156415        7.1557218738       -0.5280560974
  C        18.8593921061        6.4519633548       -1.1747879477
  C        20.0127973443        6.0745928152       -0.4197796850
  C        20.1037197504        6.2277039958        0.9881541407
  C        18.9690207811        6.7573489914        1.7206216764
  C        15.7783602836        8.5445256714       -0.5596737579
  C        16.8743825902        7.9793036671       -1.1966187942
  C        17.0314563445        8.4090336880       -2.6237080787
  C        17.9224873483        9.4230419847       -2.9847780194
  C        18.0179212895        9.8993520771       -4.2975229166
  C        17.1289875830        9.4536575837       -5.3022003664
  C        16.1931821779        8.4408236375       -4.9071009720
  C        16.1040090517        7.9313009581       -3.6079094870
  H        15.5874900968        7.0678763567       -3.3373025179
  H        15.5307996714        8.1253558029       -5.7083899534
  H        17.1894452870        9.8600071186       -6.3320084348
  H        18.7941875020       10.6328037899       -4.5441116225
  H        18.5544664408        9.8377727248       -2.1871963990
  C        14.8354554590        9.3364582196       -1.2063320231
  C        13.7361761265        9.8558807860       -0.5610373764
  H        12.8912930053       10.4200662322       -0.9879101408
  H        14.8152349771        9.3888501941       -2.2909630613
  C        18.9581536529        6.3269739365        3.1281664087
  C        18.1535055109        5.2711566563        3.4963195266
  C        18.1908476157        4.7248697377        4.7683046257
  C        18.9525461037        5.2712596918        5.7960029871
  C        19.7677342785        6.3612686730        5.4877634818
  C        19.8253230183        6.8060505794        4.1872366508
  H        20.4612478671        7.6131141249        3.8534104388
  H        20.4397514219        6.8376297381        6.2036752956
  H        18.7835990304        4.9420221563        6.8458897874
  H        17.5548294613        3.8393407968        4.8583034678
  H        17.4804057755        4.8310431177        2.7666061951
  C        21.2898083399        5.6864970614        1.6526525827
  C        22.3397075303        5.1992136590        0.9867604580
  C        22.2593189205        5.0368571418       -0.4136250091
  C        21.0959500612        5.3778225634       -1.0721993374
  H        21.2331152410        5.2116157959       -2.1126720543
  H        23.1061637737        4.5559996818       -0.9488619151
  H        23.1671176638        4.9328148754        1.6156647187
  H        21.3334910078        5.8136677607        2.7194887597
  C        18.7375817091        5.9793392080       -2.6005753107
  C        17.7625593783        4.9977611637       -2.6880581945
  C        17.4648525533        4.5010528372       -3.9106365388
  C        18.0465342456        4.9937228948       -5.0568386066
  C        19.0066957933        5.9654986747       -4.9778259980
  C        19.4141484714        6.4864775896       -3.7544142051
  H        20.1892007882        7.2743598533       -3.6661930035
  H        19.5081938887        6.2863621312       -5.9055138188
  H        17.8063812045        4.4700771522       -6.0005023310
  H        16.6835944008        3.7617361554       -4.0625117023
  H        17.1821552890        4.6689334930       -1.8150547256
