140

  C         5.7433632650       -0.3514835756       16.3174442241
  C         6.7259067130        0.3877750281       17.0398088337
  C         7.7890144333        0.9838249711       16.3383000197
  C         8.8824345745        1.5311932118       17.0143642990
  C         9.9123688848        2.1393145756       16.4118259289
  C         6.6114460901        0.7616010735       18.4747508140
  C         5.8617141906        1.8697331211       18.8418480349
  C         6.0031581097        2.3140658271       20.1553857601
  C         6.8355080682        1.6801850365       21.1153287192
  C         7.5132219078        0.5165523507       20.7644084714
  C         7.2977209687        0.0405151212       19.4558220997
  H         8.8963707215        1.4925417494       18.0751874986
  H        10.7308140870        2.6987044945       16.9114713991
  H         5.2531702813        2.4899780203       18.1681196584
  H         5.3199515562        3.1006064858       20.4998147258
  H         7.1330590508        2.1774326867       22.0645138762
  H         8.1157897575       -0.0290565779       21.5050979549
  H         7.9505510666       -0.7511851073       19.0716958036
  C         5.8495841745       -0.4076535135       14.8301627755
  C         4.8194784611       -1.0710907037       14.0797733498
  C         3.7846583694       -1.6903302965       14.8023510788
  C         3.7393177374       -1.7107828921       16.2093091582
  C         4.7647411919       -1.1208720405       16.9351544451
  C         7.8272043506        1.0514262438       14.8850166639
  C         6.8907281849        0.3224946936       14.1677528030
  C         6.8676775487        0.6287707086       12.6856021414
  C         6.0169249194        1.7289594472       12.2571061332
  C         5.9736921095        2.2215250600       10.9696062171
  C         6.8538917724        1.5444166403       10.0642407699
  C         7.6304470122        0.4192371010       10.4869017736
  C         7.6176622697       -0.0497656558       11.7909823007
  H         8.0222741944       -1.0648004667       11.9848852367
  H         8.1520581712       -0.1560559977        9.7004191943
  H         6.8512686698        1.7210859051        8.9738368178
  H         5.3702864626        3.0672096219       10.6508956750
  H         5.4455893463        2.1432386452       13.0503121795
  C         8.8828264116        1.7503102211       14.2518251691
  C         9.8529512311        2.3349327067       14.9961399700
  H        10.5872447010        2.9599015361       14.5195532059
  H         8.9734664049        1.8278399804       13.1838725375
  C         4.7431191756       -1.3988964959       18.3770856123
  C         5.3251216111       -2.5381721414       18.9248820090
  C         5.4031116039       -2.7262503506       20.2986928033
  C         4.6043037831       -1.9495927013       21.1440127572
  C         3.9293834487       -0.8193297283       20.6040348549
  C         4.0622782329       -0.5098051257       19.2187116040
  H         3.6422221629        0.4025714540       18.8232161740
  H         3.3658295623       -0.2012322401       21.3054043348
  H         4.5395184465       -2.3059335893       22.1550043552
  H         5.9594084409       -3.5858026111       20.7005911226
  H         5.9240567229       -3.2084245791       18.2534222557
  C         2.6570322749       -2.3743997447       16.8625398911
  C         1.5665382509       -2.8282723399       16.1325559129
  C         1.6060898072       -2.8897436645       14.6672662651
  C         2.7368425868       -2.3669059701       14.0690753133
  H         2.7927680246       -2.4436578531       13.0145283402
  H         0.7133624866       -3.3722443758       14.1675926305
  H         0.5978363031       -3.1208801523       16.6268397745
  H         2.6839359429       -2.6010437695       17.9316105443
  C         4.8547647938       -1.4275951714       12.6549526023
  C         5.7900410700       -2.4817119359       12.2848669080
  C         5.8494783260       -3.0606223871       11.0342060313
  C         5.0561757460       -2.5801078861       10.0434671486
  C         4.1277938950       -1.5444529642       10.2798100008
  C         4.0399318405       -0.9910362547       11.5896430383
  H         3.2802553999       -0.2535409136       11.6438055846
  H         3.4765478974       -1.2396225718        9.5089911279
  H         5.1575462714       -2.8406681418        8.9628290463
  H         6.6968828459       -3.7605775297       10.9376833644
  H         6.3715711735       -2.7879174825       13.1470817477
  C        12.8309183122       -0.7231300025       16.2652548025
  C        13.8035692634       -0.0514479455       16.9906281844
  C        14.8838050347        0.5471968893       16.3209862246
  C        15.9831731431        1.1638903273       16.9559009089
  C        17.0346014272        1.7688703366       16.3191415769
  C        13.6830270634        0.4241170694       18.4297397820
  C        12.9350685402        1.4857621557       18.7902182549
  C        12.7546053392        1.9645157426       20.1053244635
  C        13.5695553461        1.4497448428       21.1407564561
  C        14.3623670223        0.3701978052       20.7390830807
  C        14.4222078531       -0.1271841846       19.4659983994
  H        16.0671565302        1.1520386889       18.0267223926
  H        17.7547518249        2.3005914358       16.9400759374
  H        12.3451723911        2.0568834277       18.0684005382
  H        11.9583131656        2.6456796040       20.2273213717
  H        13.4245145681        1.8236449209       22.1678151009
  H        14.8405077704       -0.1689909172       21.5143333585
  H        14.9940138349       -1.0144311082       19.2849706954
  C        12.8070584931       -0.6327096033       14.7830104475
  C        11.8039676450       -1.2985951705       14.0593299148
  C        10.7632192460       -1.9143830826       14.7453659035
  C        10.6486056791       -1.8929477480       16.1627520040
  C        11.7376757129       -1.3984829145       16.9246367204
  C        14.8891020668        0.6801685286       14.8229395810
  C        13.8449435392        0.0658459793       14.0350239678
  C        13.6291077806        0.4389423555       12.6071391890
  C        12.6852210753        1.4598657396       12.3584808055
  C        12.5607310806        1.8781372034       11.0490434249
  C        13.3045371929        1.3065632173        9.9739514139
  C        14.2962469873        0.4173944349       10.2991380490
  C        14.4387387773       -0.0573868951       11.6045422782
  H        15.1103364361       -0.8783414484       11.8642187928
  H        14.9475287235        0.0399904118        9.5201577349
  H        13.1654435095        1.5785646437        8.9040819719
  H        11.8862371709        2.6832417746       10.8047073333
  H        12.1117820877        1.9362145818       13.1301566079
  C        16.0842134501        1.3166221764       14.2795043678
  C        17.1375148310        1.7745603132       14.9374481299
  H        17.9863617595        2.2218857135       14.4060315298
  H        16.0212256753        1.3930964186       13.2080846786
  C        11.7697885864       -1.7361075196       18.4120759165
  C        12.5058562586       -2.7946847555       18.8794063609
  C        12.3354101646       -3.3341496339       20.1440920337
  C        11.4770261005       -2.6764176364       21.0329838227
  C        10.8003138066       -1.5529341597       20.6135599893
  C        11.0431439293       -1.0141625685       19.3844081963
  H        10.4099239908       -0.2215960270       19.0732303080
  H         9.9909375579       -1.0674326137       21.1895632345
  H        11.3715649743       -3.0642662091       22.0700852283
  H        12.8271873131       -4.2253151021       20.4746491608
  H        13.0367656669       -3.3060067031       18.1226247629
  C         9.4185797583       -2.3261127685       16.7880686197
  C         8.4622992857       -3.0626419205       16.1428096524
  C         8.6505231114       -3.2560370040       14.7247615065
  C         9.8313153176       -2.8291808018       14.0971131909
  H         9.8907956995       -2.9514810899       13.0168645935
  H         7.9492893838       -3.9107251803       14.2569671935
  H         7.4386620777       -3.2845551392       16.5314543101
  H         9.4537752041       -2.2047101671       17.8822935369
  C        11.9901862893       -1.6824629927       12.6002011968
  C        12.8394198805       -2.6945769719       12.2110781249
  C        12.9671251259       -3.1178680986       10.8840304229
  C        12.2286834518       -2.4718376166        9.8548228673
  C        11.2785100296       -1.4774912384       10.2358357677
  C        11.1015859884       -1.1729026556       11.6106181479
  H        10.4582005846       -0.3331414522       11.8738915629
  H        10.6814646916       -0.9957520315        9.4917959422
  H        12.4270314894       -2.6733707859        8.8106928602
  H        13.7430473911       -3.8622977744       10.6351042014
  H        13.5314760768       -3.1102611368       12.9518387548
