140

  C        11.5358335749        6.9826369897        2.2436089257
  C        10.5561106907        7.7098149366        2.9321896729
  C         9.4442068517        8.1859683467        2.1842726487
  C         8.3625130481        8.8918995046        2.8873609086
  C         7.3421147460        9.5866591907        2.2923403113
  C        10.7424027693        8.0776382462        4.3473425111
  C        11.6789361561        9.1265050586        4.6294387008
  C        11.8721292675        9.5617051261        5.9606956039
  C        11.0439012635        9.1347042341        6.9724695216
  C         9.9941261404        8.3102575917        6.6187586897
  C         9.8226370154        7.8111112331        5.3058475916
  H         8.4230258270        8.8245284406        3.9645967944
  H         6.6682549231       10.2468071017        2.8484624482
  H        12.2535844279        9.6068975182        3.8211144602
  H        12.6334821252       10.3425868710        6.1975372190
  H        11.1553297359        9.5204329446        7.9629664898
  H         9.2960012848        7.9513793709        7.4307055930
  H         8.9796818094        7.1379584434        5.1186532301
  C        11.5084747930        6.9430645821        0.7661207917
  C        12.5299836401        6.2614845860        0.1323179544
  C        13.6130860395        5.7129426433        0.8528906923
  C        13.6542643929        5.7355018581        2.2708944259
  C        12.5379224067        6.3098368143        2.9548252151
  C         9.3961863963        8.2212637025        0.7672148019
  C        10.4203959311        7.5851115934        0.0374484322
  C        10.4411164800        7.8985188573       -1.4500494681
  C        11.2917845820        9.0599257582       -1.8003798882
  C        11.3990190067        9.4814403475       -3.0887779744
  C        10.5543593091        8.9854380398       -4.0788417777
  C         9.7301215146        7.9177767678       -3.7842110090
  C         9.7263082958        7.3221686898       -2.4742804321
  H         9.0398033785        6.5004108776       -2.3042009173
  H         9.1052396435        7.4661206166       -4.5999957417
  H        10.4942924426        9.4461924690       -5.0751211693
  H        11.9212311163       10.4426317733       -3.2004374872
  H        11.7909334143        9.5418918626       -1.0434087276
  C         8.3245928426        8.9445340280        0.1357522388
  C         7.3381057489        9.5729225786        0.8746516190
  H         6.5599950168       10.0897645259        0.3153171744
  H         8.4324300611        8.8908026207       -0.9854766536
  C        12.3930311223        6.0571980125        4.4223123719
  C        11.5991725524        4.9891707603        4.7502978625
  C        11.6076429200        4.5139314204        6.0230323363
  C        12.3894867635        5.0924961769        7.0437760774
  C        13.2876301436        6.1341732660        6.7265729994
  C        13.2510897973        6.6135455547        5.4019689204
  H        13.9017220219        7.4466772246        5.1373157225
  H        13.8154345758        6.6578880811        7.4921411604
  H        12.3269037052        4.8288653449        8.0632153470
  H        10.9338140749        3.6748173542        6.3026730147
  H        10.9413119664        4.4743799579        4.0171900285
  C        14.7869632197        5.2381193884        3.0569644076
  C        15.8935859608        4.7500033674        2.3768772934
  C        15.8542952821        4.5557095934        0.9583519612
  C        14.7064817005        5.0348607838        0.2695735132
  H        14.7256290856        4.9199057020       -0.8485340951
  H        16.6047308091        4.0085503947        0.4043430732
  H        16.7630233580        4.3232679233        2.8055672309
  H        14.7098968956        5.3455501911        4.1418579144
  C        12.5252368657        5.8821421902       -1.2862351175
  C        11.7749308356        4.7981375477       -1.7192797713
  C        11.9137540437        4.2583512549       -3.0280351506
  C        12.7084163747        4.9426807690       -3.9439110292
  C        13.4216320113        6.0938845097       -3.5970454017
  C        13.4118143973        6.4819513749       -2.2321717573
  H        14.0809299958        7.2571794105       -1.7894731209
  H        14.0952515820        6.6093697051       -4.3035426913
  H        12.8116898471        4.5569454495       -4.9615673833
  H        11.2662879649        3.4234124647       -3.4010329863
  H        11.1592023088        4.3251875079       -0.9345667878
  C        18.8808604429        7.0173328339        2.4471005331
  C        17.9077608476        7.7662421657        3.2248948965
  C        16.8743852171        8.4493477644        2.4760336578
  C        15.8882667522        9.3206798162        3.1536127170
  C        14.8439133411        9.7920898719        2.4809264966
  C        17.8788512895        8.0769888414        4.7166631360
  C        18.6883103219        9.0583104447        5.1934389323
  C        18.5914054181        9.5120327236        6.4763879085
  C        17.6002704819        8.9744963679        7.3248235696
  C        16.8227578829        7.8847598640        6.8997341782
  C        16.8778421389        7.5227495406        5.5319165593
  H        16.0235142784        9.4460585005        4.2049266946
  H        14.1236259262       10.3630824997        3.0244768055
  H        19.4732458327        9.4683935516        4.6041653089
  H        19.3425697445       10.2679244014        6.8129313699
  H        17.4908783947        9.3232410539        8.3481326340
  H        16.0889400682        7.4212317132        7.5124218291
  H        16.2469830861        6.6917847397        5.0737255119
  C        18.8786356196        7.0519178666        0.9932777057
  C        19.9547324069        6.3813062502        0.2991524933
  C        21.0736875871        5.8579226705        1.0011265429
  C        21.0500004764        5.7888003717        2.4090189100
  C        19.9224646831        6.2626624213        3.1346556629
  C        16.8297052741        8.3592083223        1.0542248073
  C        17.9078119446        7.8220167366        0.3543718923
  C        17.8253975439        8.1278411191       -1.1282851766
  C        18.4419753273        9.3245064886       -1.4415473275
  C        18.2926475956        9.8018666975       -2.7611100087
  C        17.3866756036        9.1990344902       -3.6394743076
  C        16.6828267947        8.0680313864       -3.2450820999
  C        16.9336706496        7.5169810350       -1.9765118267
  H        16.3634968315        6.6510182646       -1.5729906737
  H        15.9624699684        7.5985238586       -3.9054106930
  H        17.1814998836        9.6413628581       -4.6416624374
  H        18.9040143956       10.6439362304       -3.0913741690
  H        19.1015471087        9.8051671509       -0.7664497122
  C        15.6388833497        8.8421651570        0.4290930532
  C        14.5979861554        9.4177090954        1.1308643305
  H        13.7449628791        9.7606714786        0.6169175706
  H        15.5173694111        8.7043504074       -0.6504307485
  C        19.7678432558        5.8693602987        4.5390847997
  C        18.8451452796        4.8171253022        4.8929376963
  C        18.7371163541        4.4082136436        6.2871492569
  C        19.5861088003        5.0032516827        7.2181868779
  C        20.5539384777        5.9768747210        6.8798391194
  C        20.6371071451        6.3755002451        5.5553029539
  H        21.3487968972        7.1130466072        5.2353323096
  H        21.3363637186        6.3353673037        7.5916297592
  H        19.5754990087        4.6229351688        8.2511328027
  H        18.0166241947        3.6665472875        6.4779986051
  H        18.2496245499        4.3488999242        4.1129232983
  C        22.0974955194        5.0527095485        2.9876871631
  C        23.2498109890        4.6554435582        2.3133952359
  C        23.3564709474        4.8658601638        0.9324172951
  C        22.2293025526        5.3764605976        0.2510343120
  H        22.3091890906        5.5197090933       -0.8566237686
  H        24.2552315357        4.4733384189        0.4662654566
  H        23.9446948559        4.1229074804        2.9470645464
  H        22.0725640314        4.9820826029        4.0657075972
  C        19.8053811918        6.0011145126       -1.1453228619
  C        18.9968598522        4.9765825442       -1.6191747934
  C        18.9872560481        4.6311562397       -2.9837802345
  C        19.6277072674        5.4337275027       -3.9495708237
  C        20.4459884597        6.4137642146       -3.4600830207
  C        20.6018110530        6.6975539907       -2.0911390155
  H        21.3626433367        7.3405830473       -1.7701974723
  H        21.1390322059        6.9473769881       -4.1167417100
  H        19.4465905356        5.3415038195       -4.9993497738
  H        18.1946613773        3.9257986260       -3.2057281063
  H        18.3973430752        4.3900348456       -0.9273107049
