140

  C         3.5601171025        0.1088347321       14.5438539776
  C         4.7016118149        0.7973962128       15.0935497206
  C         5.7748948678        1.3518066522       14.3549783493
  C         6.9939345898        1.8175664458       14.8865271388
  C         7.9853106287        2.3399275487       14.0887554942
  C         4.8494443686        1.0642978261       16.5835115633
  C         4.1678340208        2.1911562085       17.1132041977
  C         4.2432604285        2.5095317564       18.4862071160
  C         5.0607955273        1.6965543595       19.3290027192
  C         5.8292281931        0.6583682531       18.7380952615
  C         5.6537463603        0.3101591909       17.4291332109
  H         7.1448276738        1.8270324734       15.9525942850
  H         8.9134212555        2.6638347283       14.5814187042
  H         3.6877575222        2.9140775311       16.4728616274
  H         3.5403969734        3.2459875762       18.9561612398
  H         5.1429286855        2.0499002024       20.3592028886
  H         6.5874006003        0.1944749112       19.3565014598
  H         6.2142918871       -0.5150072401       17.1588798341
  C         3.5423790132       -0.0077219866       13.0826187794
  C         2.5497401180       -0.8418256709       12.4208249203
  C         1.4823555936       -1.3779125777       13.1885453912
  C         1.4482358731       -1.2438978222       14.6400148312
  C         2.6186018923       -0.6691600933       15.2240384744
  C         5.6220333011        1.3486856912       12.9256215326
  C         4.4936699413        0.7842081321       12.3070871255
  C         4.3014615284        1.1486816741       10.8987133547
  C         3.6351298611        2.2392035494       10.4562481403
  C         3.6149229488        2.5911329274        9.0612602906
  C         4.2055200195        1.7464781154        8.0510020284
  C         4.9210921104        0.5985178219        8.5711466553
  C         4.9567345091        0.3667228521        9.9475797146
  H         5.4565290940       -0.5595313163       10.1776165716
  H         5.4482882963        0.0170531296        7.7998272662
  H         4.3025921468        2.0670012239        7.0027399221
  H         2.9429069159        3.4230163323        8.8061842764
  H         3.1399168271        2.7949307501       11.2207020783
  C         6.4993280676        2.1731886954       12.2166208076
  C         7.7141725061        2.6036543303       12.7128208438
  H         8.3001331972        3.3155019590       12.1151400818
  H         6.0732884709        2.5720692875       11.3030811456
  C         2.7444004422       -0.9450554807       16.6981530161
  C         3.2075056088       -2.2168119498       17.1142169473
  C         3.0210521119       -2.6700249863       18.4095292506
  C         2.2405966118       -1.9760544758       19.4161861531
  C         1.7011136815       -0.7210418538       18.9553633820
  C         1.9861797178       -0.2204148568       17.6458595008
  H         1.5807805638        0.7726155427       17.3402512225
  H         1.0572478682       -0.1319826910       19.6366366742
  H         2.1050682049       -2.3705436726       20.3837111676
  H         3.5854320891       -3.5569101111       18.7375956381
  H         3.8131332960       -2.7897073587       16.4148267882
  C         0.3087167532       -1.7450462734       15.3920752717
  C        -0.7721275891       -2.2188117796       14.7333040142
  C        -0.6364718331       -2.5952160381       13.3894237034
  C         0.4193353509       -2.1825272352       12.6026802227
  H         0.3605456495       -2.3022578763       11.5312847878
  H        -1.3901049909       -3.2282675480       12.9307554375
  H        -1.7355132868       -2.5025551916       15.1487156967
  H         0.2756470648       -1.5186408862       16.5015944634
  C         2.5461156528       -1.2408085098       11.0235481695
  C         3.2842408719       -2.3463548967       10.5790992220
  C         3.2290188998       -2.8478408975        9.2755694498
  C         2.4595029251       -2.1953442682        8.3029861583
  C         1.6565197954       -1.0873313018        8.7752563537
  C         1.7553843848       -0.5930335672       10.0900465712
  H         1.2428837666        0.3370798639       10.3107544429
  H         0.8321805244       -0.7139581934        8.0857870978
  H         2.3526128230       -2.5558202506        7.2722037590
  H         3.6712755000       -3.8190647438        9.0813342707
  H         3.9412959603       -2.7981039500       11.2907579259
  C        10.7051978861        0.1205039573       14.2722481499
  C        11.8009926816        0.8487587378       14.9292648378
  C        12.8279712246        1.3596324125       14.1309190132
  C        13.9926741412        1.9456177827       14.7697724163
  C        15.0436691081        2.4513349714       14.0499851043
  C        11.7818119817        1.3684903591       16.3786117530
  C        10.8829662521        2.4089587734       16.7651021116
  C        10.7744711664        2.8819636509       18.0802381229
  C        11.5878733418        2.3173432034       19.0669873175
  C        12.4808683051        1.3426707565       18.7236812536
  C        12.4944196606        0.8585515207       17.4174467405
  H        14.1140153810        2.0215900234       15.8186998311
  H        15.9208611141        2.8172069356       14.5037415569
  H        10.1846683786        2.8224182550       16.0381394260
  H        10.0005728293        3.6432277981       18.2702378167
  H        11.5319046746        2.6505532050       20.0817768141
  H        13.1929371452        0.7843534684       19.3445012639
  H        13.2070481695        0.0566242125       17.2348216481
  C        10.6364314459        0.1816477749       12.8002667775
  C         9.6561239533       -0.6701713161       12.1136535662
  C         8.5940435201       -1.2118847214       12.9227493905
  C         8.5715217554       -1.1358883097       14.3773810955
  C         9.7229567517       -0.5727868161       15.0408409381
  C        12.7048715533        1.4098153917       12.7026827102
  C        11.6178172640        0.9306213599       11.9757352301
  C        11.5743416837        1.1700642021       10.5147812633
  C        10.5088582231        1.8979546423        9.9571147382
  C        10.4646683498        2.2303643488        8.5886769991
  C        11.5251983294        1.8292978184        7.7976329813
  C        12.6513496759        1.1041468144        8.2933271625
  C        12.6496068315        0.7373616742        9.6667042778
  H        13.4712941548        0.1376601932       10.1061106704
  H        13.2122002214        0.4672677652        7.6130615760
  H        11.5486259973        1.9251712001        6.6977114178
  H         9.5547682876        2.5513206134        8.1198084541
  H         9.5993748824        2.2170741443       10.6053228276
  C        13.8459508088        1.9781942184       11.9972526615
  C        14.9660309374        2.5396389484       12.6131011728
  H        15.8553536114        2.8057916901       12.0493897153
  H        13.8621794095        1.9707709128       10.9062805449
  C         9.9480148245       -0.8658667415       16.5389065716
  C        10.8012953890       -1.9038194133       16.9842079745
  C        10.9317898083       -2.3644583542       18.3232552511
  C        10.1104185479       -1.7477777629       19.2528333338
  C         9.1081779630       -0.8194500230       18.8545103484
  C         9.0259507737       -0.3710752326       17.5450923226
  H         8.3185039382        0.4128235335       17.3324799694
  H         8.3760380297       -0.4040715018       19.5886623404
  H        10.2498662745       -1.9427350460       20.2859456149
  H        11.5936484156       -3.2068580262       18.6040690475
  H        11.3593073351       -2.4980740784       16.2745609679
  C         7.5339759077       -1.7771135718       15.0847789088
  C         6.4479060128       -2.3299651207       14.4771296090
  C         6.4551797006       -2.4690406001       13.0303659869
  C         7.5495867773       -2.0474666791       12.3242910054
  H         7.7221327869       -2.1890440121       11.2443120312
  H         5.6748438358       -3.0737980344       12.5730032970
  H         5.6663865945       -2.7290958403       15.1041600598
  H         7.5793975032       -1.7278850736       16.1586712773
  C         9.6802282467       -1.0673688912       10.6499168803
  C        10.5250723351       -2.1311906845       10.3444310416
  C        10.3944909056       -2.7661278287        9.0858559896
  C         9.5333046715       -2.2662919147        8.0700143455
  C         8.7183573665       -1.2231247835        8.4105136149
  C         8.7240879067       -0.6038619591        9.6942025919
  H         7.9004773399        0.0402122681       10.0656612014
  H         7.9672942820       -0.9993039282        7.7004943979
  H         9.5170329805       -2.7137935985        7.0834905333
  H        10.8644240370       -3.7289790155        8.9092495596
  H        11.3119929202       -2.3871212304       11.0644209723
