140

  C         4.0163923039       -0.1832887010       13.9903460512
  C         5.1453134341        0.3089550779       14.7508621739
  C         6.2870511191        0.7948437601       14.0411298691
  C         7.4801744626        1.2966462909       14.6996826779
  C         8.5139757882        2.0125200981       14.1715986251
  C         5.1161736977        0.5368332805       16.2310840402
  C         4.4237331938        1.6802381632       16.6242533939
  C         4.4646295158        2.1745265349       17.9523714394
  C         5.2752904374        1.5984274372       18.9035105195
  C         6.0833275412        0.4815870706       18.4887434861
  C         5.9808812316       -0.0471995277       17.2313600225
  H         7.6070000657        0.9284279545       15.7384992598
  H         9.2436335206        2.5423856600       14.8400294334
  H         3.6755600884        2.1977432201       15.9946967629
  H         3.8131311899        2.9837867361       18.1459380455
  H         5.4281407100        1.9718277031       19.9468353697
  H         6.7504796269       -0.0211735293       19.2014631776
  H         6.7610242013       -0.7109868064       16.9338420022
  C         3.9833557520       -0.1836925097       12.5196220623
  C         2.9183777117       -0.8220096270       11.8098511134
  C         1.8489807530       -1.3765188481       12.5416189039
  C         1.8709548914       -1.3870045560       14.0049965103
  C         3.0115006191       -0.9003467099       14.7441568046
  C         6.1667275475        0.9066512905       12.6018237646
  C         5.0309455143        0.5833697037       11.8828851745
  C         4.9258581721        0.9689522203       10.4392595698
  C         4.2566659099        2.1314635132       10.0216000642
  C         4.3253868755        2.5856674220        8.6340943767
  C         5.0131908095        1.8632226274        7.7115693954
  C         5.5391947626        0.6224873873        8.0478806129
  C         5.5802627642        0.2585171241        9.4292042111
  H         6.1691877049       -0.6440122746        9.7162859211
  H         6.1796610616        0.0622131187        7.3558770927
  H         5.1203573063        2.2308138958        6.7241632893
  H         3.7861655540        3.5186863584        8.4234292872
  H         3.6797498967        2.6844037877       10.7768011280
  C         7.3119991933        1.5275836008       12.0079384644
  C         8.3850911105        2.0103449359       12.7581634406
  H         9.1545827189        2.6119999015       12.2087140672
  H         7.3668747336        1.7936086260       10.9452440811
  C         2.9290343662       -1.1638007900       16.2645302242
  C         3.4557687088       -2.3565018356       16.7090072598
  C         3.2298057101       -2.7658437325       18.0568787581
  C         2.4648382491       -1.9906156634       18.8908418366
  C         1.9431558772       -0.7726705842       18.4261934083
  C         2.1092497129       -0.3691021993       17.0964378576
  H         1.7912795096        0.6223054071       16.7729636803
  H         1.5456839914       -0.1742764454       19.1890204065
  H         2.4178026782       -2.2874358290       19.9686838868
  H         3.5884633430       -3.7295011896       18.2793507268
  H         4.0111724103       -3.0028853654       16.0747977359
  C         0.7835236018       -2.0650213362       14.6937758369
  C        -0.3497241743       -2.5339381178       14.0681605254
  C        -0.4665736261       -2.3695356441       12.6775039669
  C         0.6527260048       -1.9151323774       11.9337398908
  H         0.5690318861       -1.8462018364       10.8896794065
  H        -1.4387985618       -2.6009144595       12.2942489440
  H        -1.1021367981       -2.9601995566       14.7060854224
  H         0.8308022027       -2.0673140601       15.8321844229
  C         2.8428386605       -1.1241870502       10.3513240281
  C         3.4737918830       -2.2902964285        9.8227441859
  C         3.4129085383       -2.4602507642        8.4220004072
  C         2.6579233496       -1.5723495617        7.6836991676
  C         1.9299467549       -0.5027736209        8.2707371222
  C         2.0168644926       -0.3072495290        9.5973168332
  H         1.5389252791        0.5737251749       10.0745980135
  H         1.3560642489        0.1170424033        7.6158059322
  H         2.4540296028       -1.7462995541        6.5632335886
  H         3.7850652449       -3.4050435932        7.9634816424
  H         4.1234824676       -2.9303166567       10.4127792989
  C        11.2618196745       -0.4898057823       14.3352737808
  C        12.2632120078        0.3046734830       14.9594318580
  C        13.3111603226        0.8994052134       14.2004372474
  C        14.4304170421        1.5530414498       14.8408533259
  C        15.4876721795        2.1275256777       14.1521926999
  C        12.2249244704        0.6493599418       16.3761878911
  C        11.5951255880        1.8281567015       16.8557240718
  C        11.8353513249        2.2591343196       18.1421714085
  C        12.7179173268        1.5195778588       18.9726844441
  C        13.3333976597        0.3961756247       18.5207725361
  C        13.0519602078       -0.0927614789       17.2611345719
  H        14.3648910578        1.6154164520       15.8899407370
  H        16.2537789949        2.6487517026       14.7093112116
  H        10.9535562160        2.3646071340       16.1588794725
  H        11.2827263043        3.1357512152       18.5818363096
  H        12.9494883750        1.9570667203       19.9540623687
  H        14.0294987681       -0.1944227633       19.1262795374
  H        13.5576552834       -0.9218681707       16.8107020605
  C        11.1969783105       -0.5001075583       12.8440596888
  C        10.1115173579       -1.2366194507       12.1770117707
  C         9.0604086982       -1.6868303366       12.9815231822
  C         9.1300326126       -1.7189119559       14.4440409012
  C        10.2768036417       -1.2124334374       15.0913086347
  C        13.2423352535        0.8808277809       12.7773586262
  C        12.1400801707        0.2267259736       12.0709454055
  C        12.0991674497        0.6169580807       10.6563418654
  C        11.0784204619        1.5596136010       10.3328191945
  C        10.9972292643        2.0891550238        9.0417157778
  C        11.8479819357        1.7053170101        8.0637847344
  C        12.8007487301        0.7072999453        8.3768198153
  C        12.9645246701        0.1804556509        9.6829565237
  H        13.7167881416       -0.6268474573        9.7448818526
  H        13.5200799433        0.5056371716        7.5420314439
  H        11.8550401160        2.0264737039        7.0325719016
  H        10.0452653970        2.6641795304        8.9346329465
  H        10.3850736241        1.8991521628       11.1183476714
  C        14.2662770904        1.6304042054       12.0562759160
  C        15.3822002062        2.0705776251       12.7522546698
  H        16.1862569999        2.4632709331       12.1125599346
  H        14.2318301177        1.7810235927       10.9842608385
  C        10.3169841957       -1.5253052284       16.5319438267
  C        11.1804459227       -2.4815667758       17.1037989559
  C        11.1174443673       -2.8168079675       18.4641529186
  C        10.1949124193       -2.2213641451       19.3356443146
  C         9.3511302134       -1.2379276689       18.8331487267
  C         9.4250472250       -0.9137157047       17.4766153023
  H         8.8737825681       -0.0532624261       17.0819642391
  H         8.6746628641       -0.7242866730       19.5275494486
  H        10.2295840453       -2.3611345401       20.3851375103
  H        11.8123214592       -3.5403000026       18.8241900804
  H        11.8442952238       -3.0411839909       16.3852691355
  C         8.1373289694       -2.5458190362       15.0859047201
  C         6.9236132417       -2.9298113684       14.4792720124
  C         6.7739807324       -2.7089127353       13.1027705170
  C         7.8906687900       -2.2940573336       12.3720505242
  H         7.8929523182       -2.3796934836       11.2844974726
  H         5.7672693416       -2.8843755218       12.6817380181
  H         6.0754314520       -3.3749015826       15.0246521342
  H         8.2240681166       -2.6993632589       16.1716871278
  C        10.0794664630       -1.5152745765       10.7305538456
  C        11.0618995863       -2.4093741843       10.2182077798
  C        11.0276722982       -2.6845905577        8.8516296280
  C        10.0084795159       -2.2347245043        8.0226172258
  C         9.0324776192       -1.3710582290        8.5064983752
  C         9.1387403154       -1.0079065479        9.8129572369
  H         8.5848507733       -0.1644551897       10.1445892901
  H         8.3273880893       -0.8669439979        7.8301540885
  H        10.1079349199       -2.3411915423        6.9375693419
  H        11.8330912610       -3.3463021836        8.4418098652
  H        11.7634688388       -2.8881256856       10.8753042204
