140

  C         9.1317150503        7.6566904052        1.3120181816
  C         8.0172116263        8.2970364460        1.9327854052
  C         6.9390334238        8.8041128747        1.1083462588
  C         5.7471849720        9.3580147033        1.6516056749
  C         4.7927144471       10.0009316445        0.9438392062
  C         8.0657225360        8.6720063403        3.3469031893
  C         8.8655476385        9.7675514043        3.6215662222
  C         9.0802103204       10.3038520225        4.9107383244
  C         8.3622730799        9.7243919053        5.9730149857
  C         7.4636426546        8.7031175823        5.6766922196
  C         7.2672742843        8.1653086980        4.4191289772
  H         5.6816766450        9.1745334972        2.7707297227
  H         3.9156056206       10.4295528930        1.4261740292
  H         9.2280124442       10.1635352267        2.7027343408
  H         9.5154570198       11.3115079195        4.9981398802
  H         8.4264105039       10.0933873385        6.9250425064
  H         6.8644816738        8.2857350147        6.5083625547
  H         6.6262543533        7.3140839069        4.2863026011
  C         9.1890190339        7.6962641552       -0.0864118366
  C        10.2445207278        7.0424160737       -0.7818620518
  C        11.3845716833        6.5195096062       -0.0939103447
  C        11.2620668724        6.3222356549        1.3300703040
  C        10.1636521901        6.9209307101        2.0613977188
  C         7.0325576950        8.9138143087       -0.3220607016
  C         8.2060406547        8.3804479464       -0.8736810650
  C         8.5812318386        8.8512947233       -2.2786762220
  C         9.4778674419        9.9746594013       -2.3802299318
  C         9.7512751658       10.7151463150       -3.5559637297
  C         9.1686906320       10.2561901811       -4.7547236459
  C         8.1987787673        9.2286263933       -4.6030747182
  C         7.9042771593        8.5614230319       -3.4469347817
  H         7.0756558420        7.8406059896       -3.5879976051
  H         7.7557295359        8.6810203264       -5.4025769874
  H         9.4515939061       10.6656719301       -5.7351149981
  H        10.5419702787       11.4758708243       -3.4720377433
  H         9.9886442413       10.3428391889       -1.4742196591
  C         6.0059013822        9.5181085686       -1.0680162272
  C         4.9113892763       10.1310136541       -0.4838970300
  H         4.1643801899       10.6276343580       -1.0484864467
  H         6.0856263699        9.5395195878       -2.1400118427
  C        10.0366563577        6.6758067434        3.5555509617
  C         9.0308949038        5.7156154530        4.0817953854
  C         9.1693515787        5.3012810027        5.4028872710
  C        10.1846943277        5.8108366778        6.2715811898
  C        11.1129923956        6.6054724830        5.7665258203
  C        11.0351627739        7.0598280005        4.4251936550
  H        11.8565768538        7.7282364969        4.0750242468
  H        11.9690742320        6.9483223876        6.3274321132
  H        10.2171303883        5.4776894961        7.3121710288
  H         8.4629262828        4.6711490679        5.9090191196
  H         8.2562703866        5.3473984999        3.3901523900
  C        12.2777797905        5.5567414824        1.9979324744
  C        13.5091945714        5.2487270701        1.4173411857
  C        13.6607522901        5.6206805277        0.0162131413
  C        12.5787407628        6.0731640825       -0.7051459228
  H        12.7180187442        6.1119570097       -1.7867655311
  H        14.4423387674        5.1768426713       -0.5816307926
  H        14.2276911033        4.7096690835        2.0265128570
  H        12.1276170702        5.2469321203        3.0355182654
  C        10.1508754560        6.7572386565       -2.2496572593
  C         9.4829511773        5.5943699862       -2.7394471454
  C         9.5179656392        5.2270388287       -4.0543814295
  C        10.2554671940        5.9971609026       -4.9887980907
  C        11.0488953075        6.9864091404       -4.5058295303
  C        10.9336191883        7.4139956420       -3.1163942522
  H        11.4998493825        8.3484479398       -2.7812880587
  H        11.7804808240        7.5799795006       -5.0671681814
  H        10.3241550310        5.6637574696       -6.0309043505
  H         9.0533909890        4.2614369055       -4.3262125715
  H         9.0036330338        4.9527681642       -2.0132073896
  C        16.6384524947        7.6295311838        1.3401015781
  C        15.5759570303        8.2087923451        2.0875480873
  C        14.4458670424        8.7469740302        1.4091251354
  C        13.2554675387        9.2222928924        2.0961601209
  C        12.3331391639       10.0431288922        1.4667211186
  C        15.6351623552        8.6163850998        3.5874036597
  C        16.3981334277        9.7094993096        4.0136225619
  C        16.3203668078       10.2184674515        5.3191987124
  C        15.5512784400        9.5589769770        6.2629571765
  C        14.7215523524        8.4807862377        5.8758796379
  C        14.8337942344        7.9741937384        4.5763594467
  H        13.1791571166        8.8357965716        3.1351672926
  H        11.4811805573       10.5337102951        1.9691094922
  H        17.0070710627       10.3333218742        3.3267570947
  H        16.9302354067       11.0571905285        5.6295747319
  H        15.4262298203        9.8700394219        7.2999047282
  H        14.1281872473        7.9837533950        6.6321837253
  H        14.2212002670        7.1588977620        4.2299255465
  C        16.6417918027        7.6651628834       -0.0713709762
  C        17.6353369572        7.0331140335       -0.8468910881
  C        18.6616746155        6.3760352325       -0.1974778642
  C        18.7356276937        6.3834668271        1.2655954110
  C        17.6557516716        6.9283420805        1.9899918790
  C        14.5609604915        9.0537454121        0.0197307006
  C        15.5957773142        8.4546584903       -0.7186193802
  C        15.7611359180        8.8006688590       -2.1645230026
  C        16.6700289795        9.8058361750       -2.5477577183
  C        16.6845551844       10.3134677255       -3.8209342818
  C        15.7797085823        9.7615890700       -4.7131096095
  C        14.8716530363        8.7659879452       -4.3641120581
  C        14.8472090113        8.2909445485       -3.0670465037
  H        14.1656367520        7.5136047444       -2.7874114008
  H        14.2257284896        8.3768784455       -5.1310234644
  H        15.7799401258       10.1396522227       -5.7614379674
  H        17.3690170146       11.0854562237       -4.0995205145
  H        17.3852865759       10.0430567295       -1.7653009469
  C        13.5437161217        9.8459227382       -0.6077836273
  C        12.4570405806       10.3648804481        0.0871912008
  H        11.7697069867       10.9534738307       -0.4600093951
  H        13.5340208610       10.0818898669       -1.6794325706
  C        17.5253433418        6.4969917004        3.4428618029
  C        16.8474391516        5.3461962163        3.7377952125
  C        16.8867873012        4.7462722323        5.0192518341
  C        17.6563474956        5.3583268053        5.9933508602
  C        18.3572410864        6.5296097202        5.7448724842
  C        18.3103128627        7.1073819463        4.4824163970
  H        18.8964435852        7.9953219039        4.3089506926
  H        18.9002721646        6.9115985519        6.5892023593
  H        17.6584854474        4.9423299878        6.9967201064
  H        16.5679058986        3.7168129893        5.2173411680
  H        16.2134310703        4.9038647978        2.9538302435
  C        19.9145077697        5.9345512001        1.8607562441
  C        20.9907381049        5.4430051256        1.1569798549
  C        20.8704739253        5.3313771340       -0.2949637879
  C        19.7653968069        5.7702545454       -0.9519145319
  H        19.7181218387        5.8350767926       -2.0189419669
  H        21.7491080665        5.0561615369       -0.8994271023
  H        21.8395219105        4.9723174216        1.6292465146
  H        20.0502088852        5.8872192011        2.9348694792
  C        17.3957433173        6.6233674331       -2.2699112330
  C        16.4670348843        5.5676909988       -2.5745618411
  C        16.5020187354        4.9468890791       -3.7976337934
  C        17.2018532421        5.4881902222       -4.9020344864
  C        17.9772700693        6.6308752313       -4.6535239392
  C        18.0875212699        7.1492224432       -3.3927118533
  H        18.7056388084        7.9884001239       -3.1848473693
  H        18.3583942785        7.1580041074       -5.5389338706
  H        16.9831065856        5.0947593188       -5.9370880946
  H        15.7885021066        4.1005664990       -4.0080419117
  H        15.8214581225        5.2118383536       -1.8007663967
