140

  C        12.1554949346        5.8751507577        0.5906065133
  C        11.1634872325        6.6735072119        1.2962587684
  C        10.1591752239        7.3260477373        0.5207738106
  C         9.0656712199        8.0336342125        1.1091794464
  C         8.0271563279        8.5771437264        0.3664493578
  C        11.1029511482        6.8465967919        2.7536813324
  C        12.0642014964        7.7323983936        3.4255092760
  C        11.8615979291        7.9948185373        4.8491556948
  C        10.7300267422        7.6185496559        5.5363307429
  C         9.7922411928        6.8985340040        4.8159392528
  C        10.0703450735        6.4218109253        3.5405944594
  H         9.1504001755        8.2283263454        2.2009179299
  H         7.1665869182        8.9817623845        0.9582862872
  H        12.9875416264        7.9987843668        2.9613714985
  H        12.6009871750        8.5509854355        5.4114480640
  H        10.4916662062        8.0221520620        6.4544632111
  H         8.8416010193        6.6451885229        5.2190335973
  H         9.2803833933        5.8114121690        3.1182248410
  C        12.2240874091        5.8950041884       -0.8878548728
  C        13.2734796742        5.1060826729       -1.6019620699
  C        14.3504551130        4.5081434265       -0.8144415544
  C        14.2573250660        4.4922883598        0.6151959110
  C        13.1576319942        5.1017467977        1.2836659693
  C        10.1127679847        7.2549684802       -0.9584043074
  C        11.1925525208        6.5997963829       -1.6464826949
  C        11.2650936950        6.9065725019       -3.1144303292
  C        12.2594171635        7.7985304501       -3.5492841079
  C        12.1698983892        8.3013276727       -4.8374113504
  C        11.0535322386        7.9911565016       -5.6887277264
  C        10.1346477134        7.0540584663       -5.2645761793
  C        10.2167239453        6.4769234623       -3.9921455161
  H         9.4306291667        5.8429695959       -3.6863585552
  H         9.2914660678        6.8505939296       -5.9921203148
  H        10.8588540873        8.5647462490       -6.5429487441
  H        12.9188464190        9.0358135863       -5.2027984940
  H        12.9100842605        8.2635146489       -2.8696844960
  C         9.0438250482        7.8740234754       -1.6616311167
  C         7.9551770662        8.5085130523       -1.0506189358
  H         7.1976875648        8.9592218400       -1.7076366862
  H         9.1571947976        7.7749681376       -2.7797848242
  C        13.0308153699        4.7751776334        2.7060768418
  C        12.0096262353        3.9425011432        3.1642148242
  C        11.9794536954        3.5648043071        4.5093417473
  C        13.0127810403        3.8984167941        5.3987191845
  C        14.0742904602        4.6752133362        4.9573775233
  C        14.0250211179        5.1932789975        3.6315172047
  H        14.8509941832        5.8179141247        3.2522404103
  H        14.9483692012        5.0273881393        5.4533910700
  H        12.8875280422        3.5240565330        6.3605362706
  H        11.2289731082        2.9122135511        4.9269266459
  H        11.2094892645        3.7669746038        2.4502695005
  C        15.2679485240        3.6740141571        1.3113258189
  C        16.2206426791        2.9635307528        0.6402549382
  C        16.2507014836        2.9310243835       -0.7942865145
  C        15.3940779509        3.7204383798       -1.5310113791
  H        15.4093104389        3.7952669272       -2.5945911123
  H        17.0917596107        2.4024733205       -1.2196480051
  H        16.9141131500        2.4035155099        1.1734636001
  H        15.2653376083        3.6700675321        2.4037548475
  C        13.2900623258        4.7422392999       -3.0658032524
  C        12.4641990137        3.8267392336       -3.6249435697
  C        12.5736075945        3.5101729286       -4.9959145723
  C        13.5495855133        4.1165372909       -5.7916700686
  C        14.4153508694        5.1278952103       -5.2778391801
  C        14.2524399085        5.4104760015       -3.9168559814
  H        14.8455780247        6.1751551795       -3.4757005787
  H        15.1880472131        5.6315413990       -5.9244139207
  H        13.6999352030        3.8519032553       -6.8814705112
  H        11.9754127194        2.7591352393       -5.4956604310
  H        11.6372966641        3.3135684973       -2.9652554189
  C        19.3164011497        5.8365208955        0.4116663225
  C        18.3014754114        6.6205603721        1.0826665593
  C        17.2102487334        7.1081893353        0.3182514683
  C        16.1291559748        7.7959644920        0.9205767623
  C        15.1196632974        8.4186044921        0.2086509449
  C        18.4593198569        6.9975924192        2.5041056960
  C        19.3720342567        7.9699875088        2.7663222961
  C        19.6071007708        8.4979630658        4.0593983700
  C        18.7264976805        8.0770019653        5.0620282163
  C        17.7203716631        7.1647794649        4.8108150101
  C        17.5030362046        6.6921648193        3.5313778056
  H        16.1247950359        7.7333453710        2.0012738054
  H        14.2431667430        8.8788086284        0.6321467973
  H        20.0433525324        8.2382109284        1.9367293113
  H        20.3362765495        9.2551555582        4.2958948742
  H        18.7362642973        8.4077761202        6.1030057672
  H        17.0311045508        6.8828019464        5.5904803773
  H        16.8257085604        5.8716422353        3.3149671489
  C        19.2691877430        5.7702408731       -1.1131566247
  C        20.4115263061        5.1035283295       -1.7075103392
  C        21.4609679951        4.5416238039       -0.9316945833
  C        21.3725762122        4.5285660194        0.4836008119
  C        20.3504838265        5.2035632425        1.1284567015
  C        17.2244632246        7.1119257852       -1.1638471680
  C        18.2574204580        6.4756071833       -1.8751812216
  C        18.4823073456        6.9662121110       -3.3183144174
  C        19.1800280096        8.1617428883       -3.5390375947
  C        19.1747584385        8.8750601179       -4.7438118568
  C        18.4029241820        8.3560840970       -5.8369075421
  C        17.6742828544        7.1801729127       -5.6415989221
  C        17.7482915177        6.4667403717       -4.4169898846
  H        17.0902867032        5.5603492024       -4.2575342103
  H        17.1877695266        6.6741497367       -6.4307667335
  H        18.1829525169        8.9947845508       -6.7083907785
  H        19.8287395779        9.7548908244       -4.8703628380
  H        19.6904784903        8.7042099148       -2.6969724668
  C        16.2349005564        7.8371897485       -1.8354763160
  C        15.2019782443        8.4719503710       -1.2358904143
  H        14.5379154178        8.9982186294       -1.9004072172
  H        16.3419563358        7.9882869888       -2.8987689351
  C        20.2043880664        4.7878159246        2.5020598182
  C        19.4392529231        3.6216355456        2.7301560993
  C        19.4448539055        3.0394559404        3.9815274990
  C        20.1847985165        3.6117964827        5.0456677446
  C        20.9869952152        4.7620652428        4.7631704058
  C        20.9771763931        5.3958896003        3.5235693788
  H        21.6215677064        6.2347488195        3.1794049914
  H        21.4620334379        5.3710226650        5.6286580245
  H        20.1716346413        3.1871372312        6.0602366591
  H        18.8519837438        2.1376378807        4.1313733535
  H        18.8814555787        3.1276929424        1.9114030828
  C        22.3755839223        3.7854907773        1.2380412422
  C        23.5021917547        3.3292661467        0.5936829796
  C        23.6117631803        3.3509361299       -0.8139100223
  C        22.6233593735        3.9377533208       -1.5710981880
  H        22.6955242757        3.9212657436       -2.6743136722
  H        24.4859889517        2.8919083284       -1.2826805432
  H        24.3077857715        2.8289555159        1.1405642287
  H        22.2636001605        3.7251470296        2.2829248713
  C        20.4222349874        4.8505158652       -3.1682337986
  C        19.5886599205        3.8739218741       -3.7679271124
  C        19.5642569214        3.5559990086       -5.1231227651
  C        20.4455609002        4.3111839589       -5.9439020178
  C        21.2400993490        5.2380627673       -5.4007488914
  C        21.3053181747        5.5155116514       -4.0229459505
  H        21.9360978146        6.3446681061       -3.6514661496
  H        21.9358142438        5.8463447589       -5.9931301693
  H        20.5457613367        3.9546200029       -6.9822944800
  H        18.9300137064        2.8218658936       -5.5683305585
  H        18.9020798169        3.3450929063       -2.9897902092
