140

  C         4.1568968000       -0.1112442323       13.9300410366
  C         5.1364537380        0.5768121525       14.7087056627
  C         6.1874105925        1.2499547570       14.0035385184
  C         7.3173861721        1.7387809250       14.7838291823
  C         8.3290070562        2.3799720988       14.1541093251
  C         5.0297497477        0.7793539619       16.2143608050
  C         4.2926823661        1.9300391362       16.4382565293
  C         4.0193003090        2.4312901453       17.7354674906
  C         4.7635728213        1.8459129461       18.7944270617
  C         5.5945174275        0.7217244609       18.5139412274
  C         5.7030911668        0.1132101071       17.2177551916
  H         7.3105365451        1.5836161288       15.8896630524
  H         9.0948555924        2.9021083944       14.6889287441
  H         3.7473639001        2.3204483524       15.5566164150
  H         3.4332191784        3.3032434963       17.9669350146
  H         4.5832000209        2.1511767927       19.8446240854
  H         6.1643945373        0.2687653763       19.3540324830
  H         6.2186139782       -0.8166125575       17.0940658043
  C         4.2948729388       -0.2385233421       12.4669167132
  C         3.2875096900       -0.9449726837       11.8078613145
  C         2.1986199678       -1.5269002842       12.4435028396
  C         2.1853078370       -1.5168615160       13.8976416566
  C         3.2353807973       -0.9043311234       14.6026826898
  C         6.3638901347        1.1586352073       12.5165455555
  C         5.2925441614        0.5304149000       11.8337938237
  C         5.2055583604        0.7258491050       10.3461100457
  C         4.2697874503        1.6666460439        9.9105674848
  C         4.0730049796        1.9711564724        8.5791156834
  C         5.0404348253        1.5072518312        7.6589291540
  C         6.0425890621        0.5676909423        8.1096729818
  C         6.0939438772        0.2166330190        9.4413783150
  H         6.8104967326       -0.4512950845        9.8304939363
  H         6.7121671143        0.1048218893        7.4424217267
  H         4.9511451080        1.7019584337        6.6153570590
  H         3.3779821450        2.7111083528        8.2193375045
  H         3.5077545913        2.0469909554       10.5863624563
  C         7.4307501924        1.8704424012       11.9467561122
  C         8.3606434175        2.4701349951       12.7718577894
  H         9.0692511495        3.1743758187       12.3845245356
  H         7.4588671497        1.9666850521       10.8627326836
  C         3.2704902266       -1.2666302665       16.0572423700
  C         4.0587609464       -2.4237235673       16.5372982249
  C         4.0603947781       -2.8175339298       17.9058998019
  C         3.1572176001       -2.2061519496       18.8172547732
  C         2.3078573583       -1.1972430939       18.2989244780
  C         2.4066071665       -0.7008572338       17.0138946338
  H         1.7692396681        0.1109109285       16.6652797578
  H         1.6297085963       -0.7012244192       18.9512532681
  H         3.2552318200       -2.4923067891       19.9028043927
  H         4.6163854982       -3.6721867682       18.2190352249
  H         4.6436775942       -2.9431032407       15.7569155672
  C         1.1412882733       -2.2296384465       14.5765244481
  C         0.1308737556       -2.9198130738       13.8929285698
  C         0.1402771223       -2.8665172494       12.4848029571
  C         1.1798934248       -2.3004222499       11.8091627788
  H         1.2441481322       -2.3841160786       10.7736245672
  H        -0.7088221336       -3.3604762584       11.9806013479
  H        -0.6809630717       -3.3594843849       14.4806149313
  H         1.1397773813       -2.1789999640       15.6553254704
  C         3.2942013206       -1.3417029288       10.4321103226
  C         3.9197178056       -2.6384816558       10.2421393192
  C         3.7994083349       -3.3199208271        9.0381239741
  C         2.8917620107       -2.8499333650        8.0829332086
  C         2.2579644531       -1.6355532721        8.2529111829
  C         2.5144789567       -0.8337305745        9.4140467449
  H         2.0004324839        0.0553818434        9.5932456065
  H         1.4767538700       -1.3152014718        7.5475400521
  H         2.6244509165       -3.5027899549        7.2079060584
  H         4.3175028921       -4.2852801805        8.7147003902
  H         4.5238049305       -3.0711546457       11.0261130519
  C        11.3057987355       -0.3473422770       14.1973692016
  C        12.3196553791        0.2937896709       14.9960914870
  C        13.4779875169        0.8693181486       14.2894027169
  C        14.4505686530        1.6461369554       15.0117625488
  C        15.5576831994        2.1557363364       14.3304577384
  C        12.2836326888        0.5689048396       16.4893843447
  C        11.5781498470        1.6102343484       17.0670430008
  C        11.5279712776        1.9568866708       18.3988464414
  C        12.3617127247        1.2823116028       19.2589415632
  C        13.2081814364        0.2714887395       18.7542422712
  C        13.0616781758       -0.1931404577       17.4518412793
  H        14.4977698124        1.7765302753       16.0738675338
  H        16.2252962626        2.8418591528       14.8422574640
  H        10.9463248788        2.2513146085       16.4511380477
  H        10.9232992511        2.8664972698       18.7097668047
  H        12.2989581792        1.5347820282       20.3314283670
  H        13.7150557731       -0.3953756232       19.4259128535
  H        13.6644137751       -1.0119922194       17.0847081239
  C        11.3611342915       -0.3223523906       12.7319377410
  C        10.3792639699       -0.9727981450       11.9581552480
  C         9.1801655590       -1.4597315287       12.5552988878
  C         9.0959541776       -1.3919413778       13.9889540654
  C        10.1547770920       -0.9559605642       14.7872351436
  C        13.5853058289        0.8203095164       12.8506446331
  C        12.4614230769        0.2458856513       12.1557904144
  C        12.4207845957        0.5401983976       10.7171764178
  C        11.6269937942        1.6722264818       10.3260194758
  C        11.4817632091        1.9474103324        8.9731296992
  C        12.2171909788        1.2655746101        7.9959915784
  C        13.0428239634        0.1951158039        8.4135459032
  C        13.1815844168       -0.1257999147        9.7708470475
  H        13.7883630167       -1.0008783557       10.1085182762
  H        13.7038750551       -0.2465575530        7.6820889013
  H        12.1161532854        1.4844032615        6.8484159539
  H        10.7553210069        2.6919187189        8.6505940618
  H        10.9841454850        2.1262424855       11.0206949156
  C        14.6563814803        1.4252832738       12.2157548970
  C        15.6433554069        2.0588415277       12.9571155936
  H        16.5671817039        2.5028029390       12.5247544706
  H        14.8010357173        1.3194894307       11.1294494115
  C        10.1197249518       -1.2397921201       16.2316687604
  C        10.8963654958       -2.2618058055       16.6518117101
  C        10.8471962133       -2.7827647778       17.9416307759
  C        10.0238276183       -2.1550538540       18.8819405212
  C         9.3101229593       -0.9685614350       18.4786531199
  C         9.3361028783       -0.5367513793       17.1907015362
  H         8.8038243907        0.3609012339       16.8600587689
  H         8.6738222879       -0.3704095465       19.1482830316
  H         9.8749656546       -2.4754593311       19.9194522232
  H        11.5343604735       -3.5758684526       18.2034327487
  H        11.5527703261       -2.7338368747       15.9405178950
  C         7.8867385283       -1.9533871280       14.6228172994
  C         6.9603398790       -2.5731926335       13.8555769544
  C         7.0914238123       -2.6929421840       12.4310296236
  C         8.2152028872       -2.2247745374       11.8220316354
  H         8.4366775158       -2.3223553232       10.7974889092
  H         6.3525889382       -3.3063385617       11.9663257696
  H         6.0804963373       -2.9805982741       14.2390783071
  H         7.6931469607       -1.8846946187       15.6970387929
  C        10.5287076182       -1.3817603746       10.5420018904
  C        11.0885068454       -2.6278464533       10.1658934931
  C        11.0224427153       -3.1835563603        8.8576684779
  C        10.2504379980       -2.4767171084        7.9021681150
  C         9.6738744949       -1.2805590614        8.2821475950
  C         9.8188026497       -0.6815321100        9.5598239199
  H         9.3359916039        0.2580813462        9.8371328643
  H         9.1236484085       -0.7202333538        7.5294453953
  H        10.0717413707       -2.8481838753        6.9110770820
  H        11.4774819895       -4.1619715780        8.5887540803
  H        11.6835119678       -3.1356324947       10.8696657834
