140

  C         3.8912356454       -0.0418212166       14.2648764330
  C         5.0260063595        0.7164485523       14.8815672894
  C         6.1061537254        1.2073185351       14.1063542005
  C         7.1791849534        1.9025412152       14.7236325119
  C         8.1359778808        2.4918393330       13.9482014955
  C         4.8781134366        1.1041415669       16.3123119242
  C         3.9043762184        2.0418806292       16.7663727628
  C         3.8360289532        2.3500872951       18.1412508206
  C         4.8457053706        1.9686649008       18.9883757271
  C         5.8333057937        1.0930337552       18.5462420667
  C         5.8170941396        0.6390461035       17.2562809170
  H         7.0700221020        2.2425816022       15.7316264733
  H         8.8126402667        3.2364130946       14.3770542173
  H         3.1637849413        2.4237888495       16.1019166222
  H         3.0075268969        2.9104686753       18.5926849834
  H         4.8085077984        2.1054109276       20.0416309767
  H         6.5539717544        0.6787338112       19.2359564576
  H         6.2969202610       -0.2298914847       16.8889311873
  C         3.9173703642       -0.2150796944       12.8341758868
  C         2.8986638754       -1.0103159802       12.1723136723
  C         1.8391190277       -1.4810510845       12.8994254287
  C         1.8584538485       -1.5507520497       14.3647153897
  C         2.9262225489       -0.8228559983       14.9699689181
  C         6.0707523817        0.9003885401       12.6742508603
  C         4.8721684138        0.4047503499       12.0390914786
  C         4.8877558725        0.6927045871       10.6052607291
  C         4.1985790319        1.8043858520       10.1115372591
  C         4.2914737584        2.2269459183        8.7687075904
  C         5.2108726541        1.6265173278        7.9434711774
  C         6.0434451820        0.5812772679        8.4283914404
  C         5.8042798394        0.0693215865        9.7238210878
  H         6.2038892075       -0.8607326028       10.0570498766
  H         6.7668416257        0.1298106585        7.7600055979
  H         5.4112523139        2.0097194918        6.9377855099
  H         3.7235380341        3.0980370506        8.4993418742
  H         3.5659413020        2.3801905914       10.8268499007
  C         7.1855233183        1.4339630500       11.9403641376
  C         8.1318175501        2.2669289052       12.5398248994
  H         8.8811991832        2.7615403324       12.0060980881
  H         7.1311915333        1.4933895544       10.8636281769
  C         3.2250259964       -1.2207668717       16.3633184511
  C         4.1648152786       -2.2325703746       16.5052849803
  C         4.3650904188       -2.8819631121       17.7598354259
  C         3.6354942277       -2.5509469458       18.9172167617
  C         2.7424040803       -1.4935747666       18.7418289788
  C         2.5516501146       -0.8785642587       17.4927287125
  H         1.9382518779        0.0034796043       17.4794850892
  H         2.0781164594       -1.1010623745       19.5431886879
  H         3.7856714558       -3.0675016258       19.8486850991
  H         5.1437635736       -3.6595004001       17.7957292965
  H         4.8554735967       -2.5121981958       15.6752642538
  C         0.7915911739       -2.3359637863       15.0526270642
  C        -0.1997917938       -2.9654971086       14.3436557982
  C        -0.3267340778       -2.7168600023       12.9046032397
  C         0.6392398890       -2.0032642321       12.2738565339
  H         0.5192988325       -1.7771627944       11.2089747449
  H        -1.2545487782       -2.9609882511       12.3544026289
  H        -0.9020036174       -3.5614944735       14.9224760376
  H         0.8952954629       -2.4404275985       16.0806176905
  C         2.9563828752       -1.3348294299       10.7665984182
  C         3.8926532261       -2.3202125876       10.3429543527
  C         4.0040791484       -2.6652720546        8.9842250963
  C         3.1475932946       -2.2318793437        7.9991401597
  C         2.2278927016       -1.2219725650        8.4169854249
  C         2.2081724734       -0.7928431979        9.7236618269
  H         1.5418329274        0.0019640680        9.9601437053
  H         1.4623593255       -0.8585731590        7.7528235774
  H         3.1308668542       -2.7435697840        7.0063435984
  H         4.8808333809       -3.2515499498        8.7279014899
  H         4.6351307548       -2.7639353951       10.9722041090
  C        11.2201113003       -0.0766850273       14.0009060840
  C        12.3169957910        0.5331998342       14.6646442161
  C        13.4525339395        1.0721430678       13.9825137230
  C        14.5073134893        1.7059666627       14.7051993385
  C        15.6457119562        2.1586528857       14.0938180385
  C        12.2166498825        0.8260972265       16.1201619370
  C        11.3176832016        1.6968076339       16.6192327030
  C        11.2317057221        1.9959737619       17.9719470237
  C        12.0526031104        1.3417079818       18.9024411783
  C        13.1159013188        0.5331528277       18.3999167128
  C        13.1380814242        0.2195572113       17.0566165988
  H        14.3267291118        1.7182330274       15.7991161093
  H        16.4230946462        2.6331295702       14.6633396722
  H        10.6516935727        2.2496958001       15.9900931149
  H        10.3488496163        2.5003605455       18.3469573114
  H        11.8890858177        1.5237363996       19.9642277051
  H        13.7136935814        0.0464456572       19.1584705257
  H        13.8265525108       -0.5332958677       16.6696430885
  C        11.2380003081       -0.0420214050       12.5669556734
  C        10.1875258501       -0.7064880958       11.8481350943
  C         9.0268897124       -1.1047368043       12.5937404132
  C         9.0656642540       -1.2461708742       14.0027938079
  C        10.1927297800       -0.7561849141       14.7048282858
  C        13.3890876291        1.1861711880       12.5260980675
  C        12.2741179247        0.6454498079       11.8337900679
  C        12.1514418285        0.9699328021       10.4118310172
  C        11.1087494389        1.7830971414        9.9711017812
  C        11.0854607100        2.1209114637        8.5884938260
  C        12.0686161552        1.8496781359        7.6692796036
  C        13.1126915941        0.9751825017        8.1495662978
  C        13.0605416896        0.5528705007        9.4881551697
  H        13.8089132281       -0.0884378629        9.8582565482
  H        13.9766677569        0.7153908904        7.4856690359
  H        11.9858077111        2.1812498834        6.7050938859
  H        10.3581106436        2.8284815982        8.1892220868
  H        10.3084216982        2.1049301027       10.5961254270
  C        14.4837317489        1.9170317248       11.9195909117
  C        15.5968056276        2.3677484157       12.6608096224
  H        16.4528769037        2.8331491924       12.2020622868
  H        14.4311393437        2.3068533343       10.9063272643
  C        10.4285541908       -1.1887119036       16.1236569927
  C        11.2393125607       -2.3192084248       16.2837134818
  C        11.4370451474       -2.9396299412       17.5600914894
  C        10.7485973431       -2.5189658072       18.7078766070
  C         9.8767355645       -1.4000374466       18.5340433780
  C         9.7075745975       -0.8248387894       17.2666020437
  H         8.9265499170       -0.0778602091       17.1252449855
  H         9.1728495786       -1.0521664508       19.2843142334
  H        10.9563017872       -2.9994263856       19.6830813054
  H        12.0880750257       -3.8419499740       17.6628458461
  H        11.7529944293       -2.7264631537       15.4572387831
  C         8.0800459151       -2.0354575016       14.6833246915
  C         7.0445044622       -2.5804772971       13.9942172821
  C         6.9488092163       -2.4009887353       12.5702774391
  C         7.9507742447       -1.8041895229       11.8984484018
  H         7.9564227188       -1.9144467071       10.8312366764
  H         6.2009985763       -2.8861448457       11.9707854324
  H         6.3338484496       -3.1828013898       14.5132597673
  H         8.2289579240       -2.2869357380       15.6890123943
  C        10.3583406275       -1.0438452753       10.4282459439
  C        11.2810241956       -2.0841471236       10.1487491670
  C        11.2948141725       -2.8533386614        8.9799080858
  C        10.3236283670       -2.5318082289        8.0154924982
  C         9.4032785274       -1.4620470533        8.2764004314
  C         9.3912715569       -0.7957259958        9.4550843864
  H         8.6457376241       -0.0428966915        9.6984571062
  H         8.7124528598       -1.2059589104        7.4774857502
  H        10.3668370978       -2.9735816973        7.0365167306
  H        12.0590130946       -3.5596027953        8.7877143241
  H        11.9911111994       -2.4216760948       10.9301468054
