140

  C        10.6572135438        7.1036914014        1.0350505728
  C         9.5547987498        7.7564593243        1.7592910527
  C         8.4464585528        8.1915139631        1.0273561399
  C         7.3546421053        8.7128808556        1.7580943824
  C         6.3287584337        9.3684153847        1.0386684782
  C         9.6598092567        8.1140165908        3.2246692922
  C        10.5581129684        9.1953379187        3.5725920846
  C        10.6868403757        9.6299572111        4.9290727182
  C         9.8807527198        9.0927590252        5.8777195032
  C         9.0035834837        8.0572294425        5.5537551528
  C         8.9188971851        7.5343018300        4.2442017453
  H         7.2471730459        8.7542532091        2.8480963301
  H         5.4710320718        9.6985843991        1.6782373848
  H        11.1559116606        9.8152947854        2.9162198279
  H        11.4028560977       10.4573315814        5.2018417856
  H         9.9559652710        9.3681267802        6.8478575252
  H         8.2118983602        7.7214940346        6.2553674689
  H         8.2034348597        6.6895160999        4.0881016901
  C        10.6437201528        7.1142399164       -0.4236739798
  C        11.7605642223        6.5279883986       -1.0988505733
  C        12.9382804527        6.0389663322       -0.4169595493
  C        12.9547860350        6.0375823526        0.9864784770
  C        11.7692846277        6.5252028266        1.6717842209
  C         8.4314531658        8.1147494605       -0.4172410217
  C         9.4775252042        7.5830881834       -1.1131541365
  C         9.5676833820        8.0910990430       -2.5590180310
  C        10.4106259927        9.1517678284       -2.8711111211
  C        10.5094337243        9.7100798266       -4.1785982972
  C         9.6354300128        9.2116257956       -5.1080732760
  C         8.7064683679        8.2571717321       -4.8417719398
  C         8.6980087943        7.6784166624       -3.5897944247
  H         8.0223085014        6.8464299368       -3.3166095935
  H         7.9933416962        7.9863707982       -5.5920131350
  H         9.6650885298        9.6387829005       -6.1356967694
  H        11.2975380448       10.4026501181       -4.3835727030
  H        10.9786441982        9.6225318249       -2.0754413827
  C         7.3242566540        8.8093794465       -1.0644100867
  C         6.3083757954        9.3877539626       -0.3622172041
  H         5.4519517760        9.9558109321       -0.8594464693
  H         7.1351558055        8.8389840882       -2.2118304084
  C        11.7558910739        6.1099236935        3.1417760129
  C        10.8998359380        5.0494252786        3.5056817802
  C        10.7519355201        4.6601218864        4.8321924777
  C        11.5657591157        5.2827229340        5.7503319449
  C        12.4967325687        6.3252411218        5.4497513606
  C        12.6141291850        6.6769554765        4.1101042568
  H        13.1238113012        7.5785902487        3.7272156382
  H        13.1573427923        6.6627982884        6.2323119179
  H        11.5529545407        4.8850706001        6.7581403420
  H         9.9959305346        3.9015226917        5.0511710303
  H        10.2361405515        4.5714933575        2.8088304798
  C        14.0781279726        5.3822830308        1.5794265895
  C        15.0276322763        4.7980873100        0.8112697241
  C        14.9436748378        4.7834153705       -0.5616778069
  C        13.9404520946        5.4140837500       -1.1726547340
  H        13.9747553774        5.3632731896       -2.2755385383
  H        15.7503958773        4.2587167593       -1.0873129383
  H        15.8816230043        4.3088420756        1.3163783896
  H        14.1263239345        5.2885923177        2.6492037783
  C        11.5288874932        6.2585946220       -2.5539396535
  C        10.8021324994        5.1488855534       -2.9688574218
  C        10.7983570485        4.6291892469       -4.2881718742
  C        11.6406182972        5.2632634803       -5.2120759071
  C        12.4569969205        6.3373981121       -4.8327108717
  C        12.4269080873        6.8147041623       -3.5151712735
  H        13.0345469369        7.5408983919       -3.1181080283
  H        13.1726405024        6.8046326922       -5.5816416575
  H        11.8053213758        4.9978124241       -6.2526510616
  H        10.2070463561        3.7246887533       -4.5914687705
  H        10.1880334040        4.6133552258       -2.2295040379
  C        17.7129904485        7.1731446717        1.3066124268
  C        16.7288161499        7.9441399001        1.9124523466
  C        15.6398909907        8.4200177055        1.1641306681
  C        14.7004400392        9.3614637118        1.7753346770
  C        13.7408202010        9.9296871461        1.0381463050
  C        16.8106812576        8.3586788040        3.2937866328
  C        17.6207164965        9.4541748263        3.6312418031
  C        17.5784357762        9.9376525882        4.9786306414
  C        16.6966988298        9.3714924676        5.9468977084
  C        16.0148078789        8.1406223937        5.5367196551
  C        15.9410131006        7.8080155874        4.1857632395
  H        14.7927705993        9.5959102978        2.8067327656
  H        13.0185346612       10.6432472562        1.4376974291
  H        18.1949671297        9.8285910761        2.8067886785
  H        18.0825491536       10.8798183974        5.3047461723
  H        16.5611733392        9.8439326210        6.9052272326
  H        15.3249246219        7.5745915505        6.1882405050
  H        15.3244723407        6.9700059487        3.9557127865
  C        17.7683043766        7.0386954783       -0.2546429785
  C        18.8647622694        6.4331122025       -0.8864835453
  C        19.9856310741        5.9995317851       -0.1704273836
  C        19.8871366735        5.9638988079        1.2758412902
  C        18.7398899692        6.4843226236        1.9547610707
  C        15.6903427263        8.4589429518       -0.3080217642
  C        16.7919034352        7.7753758356       -0.9463541118
  C        16.8215882021        8.1472638199       -2.3974516145
  C        17.3544843517        9.3878740207       -2.7374273753
  C        17.3377357419        9.7518046621       -4.0742708859
  C        16.8229726691        8.9971033099       -5.0616146410
  C        16.1629976444        7.7637825857       -4.7563184010
  C        16.3090964695        7.3205642621       -3.4179448813
  H        15.9652196510        6.3585435101       -3.0250028214
  H        15.7557198694        7.1442915797       -5.4934574512
  H        16.7653059935        9.3361394021       -6.1121081476
  H        17.8062083813       10.7030487462       -4.3160463772
  H        17.7981420043       10.1181815958       -2.0294442528
  C        14.7081440214        9.1080520465       -1.0634017467
  C        13.6806745262        9.7272448851       -0.3714907948
  H        12.9064499099       10.2684895662       -0.9094012097
  H        14.7163623323        9.0592806046       -2.1640522997
  C        18.7544902695        6.1801173612        3.4051776195
  C        17.9101543598        5.1220690740        3.7643244401
  C        18.0802382868        4.5294531510        5.0412905201
  C        18.8009088364        5.2566213676        6.0400405733
  C        19.5134852927        6.4364283034        5.6659384537
  C        19.5053670221        6.8975902581        4.3192079894
  H        20.1887817385        7.6307851563        3.9755924371
  H        20.1770789071        6.9737122788        6.3561384595
  H        18.9314591849        4.8763972893        7.0823871704
  H        17.4514241343        3.6962385728        5.3588285903
  H        17.2470234944        4.6573261846        3.0009438928
  C        20.8181490111        5.2029753553        2.0786281266
  C        21.9078550527        4.6585604334        1.4957379552
  C        22.0975497721        4.8088982681        0.0220513395
  C        21.2141520027        5.5294949931       -0.7792977415
  H        21.4326381384        5.6223643083       -1.8405688705
  H        22.9850338622        4.4034909203       -0.4359478548
  H        22.5303680622        3.9808338021        2.0560937362
  H        20.6805383265        5.1783500462        3.1473382483
  C        18.8581336586        6.0268562774       -2.3878398113
  C        18.2655337208        4.8417983511       -2.8766505837
  C        18.4925045560        4.3964612232       -4.2315226154
  C        19.2261743281        5.2517082499       -5.1005256586
  C        19.7182154359        6.5054127577       -4.6652540860
  C        19.5783188744        6.8198992748       -3.3235375525
  H        20.0089952560        7.7147859512       -2.9304525730
  H        20.2684131972        7.1558940565       -5.3752442722
  H        19.3666066435        4.9617459232       -6.1715434963
  H        18.1069033966        3.4172660951       -4.5417586878
  H        17.7824202517        4.2036454899       -2.2202089643
