140

  C        10.9520120550        7.1371452605        0.8182736345
  C         9.8575795305        7.7393326183        1.4168531396
  C         8.7840222127        8.2680031568        0.7335284283
  C         7.6309038931        8.7446480385        1.3964804676
  C         6.5618612750        9.2515370504        0.6863893470
  C         9.8222092710        8.0399024587        2.8871776469
  C        10.5035275610        9.1930405379        3.3544018993
  C        10.4420923127        9.6590084592        4.6563436457
  C         9.6684184068        8.8729090828        5.5131012162
  C         8.9797367682        7.7015060706        5.1562414545
  C         8.9930094383        7.2863644182        3.7656022430
  H         7.6074746575        8.6244372396        2.5213110130
  H         5.7703140050        9.6904023205        1.3221222122
  H        11.1044897711        9.7935318427        2.5503210492
  H        11.0677197702       10.4531907929        4.9820702580
  H         9.5220737501        9.3291646431        6.4502891305
  H         8.3284893827        7.1535798736        5.7673595770
  H         8.5434628879        6.2802444314        3.3436406044
  C        10.9817528412        7.0821878625       -0.6595722142
  C        12.0484750479        6.4773506599       -1.3958760091
  C        13.1455261931        5.9260316378       -0.6578346355
  C        13.0756308959        5.7891378939        0.7620054639
  C        11.9077348325        6.2609694917        1.4534525354
  C         8.7804492931        8.2659729608       -0.7063966476
  C         9.9575047858        7.7475541399       -1.3385306421
  C        10.0431933059        8.0180247724       -2.8264252552
  C        11.0315149737        9.0054866970       -3.3125037425
  C        10.9885821231        9.5090913855       -4.5703413631
  C        10.0429493250        9.0172819039       -5.5076109196
  C         9.0792228578        8.0602900196       -5.1146922791
  C         9.0719585308        7.6175000843       -3.7599778205
  H         8.3065186034        6.8786993253       -3.5177183958
  H         8.3186575461        7.7314480925       -5.8318031236
  H        10.1405824542        9.3495357433       -6.5370248157
  H        11.6490468885       10.4121852909       -4.7898947802
  H        11.7024992146        9.4863538344       -2.6187041343
  C         7.6718670429        8.9409895167       -1.3677058431
  C         6.6116810026        9.4086179090       -0.7222675084
  H         5.7808578988        9.9482610571       -1.2042316184
  H         7.8086086259        9.3070152533       -2.3935615322
  C        11.7083992677        5.6725473340        2.9333471982
  C        11.0264160217        4.4796044041        3.0963418847
  C        10.8071745080        3.8203173606        4.3006387052
  C        11.3829476562        4.4551265210        5.4259305794
  C        12.2794791943        5.6029900030        5.3471833747
  C        12.3082530557        6.2752896035        4.0822132144
  H        12.8456504853        7.1989431906        3.9469211830
  H        12.7923065676        5.9524365572        6.2541795330
  H        11.1378702801        4.0299621283        6.4029823222
  H        10.1943949527        2.9578065110        4.4883935306
  H        10.6212378101        3.9729653680        2.2456028320
  C        13.9878598572        4.9113780706        1.4061116010
  C        15.0323972646        4.3451821918        0.6817079145
  C        15.2357026521        4.6344328708       -0.7005699507
  C        14.2968585645        5.4187233448       -1.3425810333
  H        14.3378098914        5.6868660438       -2.4283288279
  H        16.0383982402        4.1370499357       -1.2633439858
  H        15.7024509776        3.6060268442        1.1460774315
  H        13.9561665020        4.6389174241        2.4726951859
  C        11.8239542411        6.0636389990       -2.8477359409
  C        10.9081914794        5.0259160389       -3.1112393262
  C        10.7314803285        4.6110111848       -4.4492638002
  C        11.6358177806        5.0886941805       -5.4374313592
  C        12.6886513219        5.9877955220       -5.1095369986
  C        12.7395192385        6.5286276498       -3.8580600208
  H        13.4160375685        7.3358939213       -3.6248971665
  H        13.3761218533        6.2067732017       -5.9470836913
  H        11.4517481007        4.8125735066       -6.4459219413
  H         9.9999968489        3.9310333181       -4.6260162796
  H        10.3431026072        4.6461007250       -2.2704405455
  C        17.9748870477        7.0173962811        0.5776178010
  C        16.9800043370        7.7149318301        1.2446081394
  C        15.9238293348        8.4631617452        0.5233008917
  C        14.7992872158        9.0982552343        1.2243034033
  C        13.8009846153        9.6848411395        0.4805934903
  C        17.1295714723        7.9784966744        2.7395914661
  C        18.0107481511        8.9208169293        3.3111422197
  C        17.8574313689        9.4624909913        4.5980704406
  C        16.7759496490        9.1263908912        5.3647866030
  C        15.9588844141        8.0673414009        4.9514129751
  C        16.0705872746        7.6276920896        3.5945455673
  H        14.6933510227        8.9084422906        2.2729187142
  H        12.9003807661       10.0684632787        0.9995134854
  H        18.8818944681        9.3064558734        2.8137887929
  H        18.4729899033       10.2817962535        4.9255164485
  H        16.7323586766        9.4533872270        6.4132283786
  H        15.1085943475        7.7246363005        5.5709770135
  H        15.3378018088        6.9601381827        3.1728549865
  C        18.0770447230        7.1497026330       -0.9416131523
  C        19.1491656500        6.5445016603       -1.6271970545
  C        20.2403024024        5.9597511764       -0.8991923715
  C        20.0777297688        5.8031737409        0.5438040934
  C        18.9447032324        6.2575929466        1.2571739065
  C        16.0029488943        8.4870072323       -0.9320133186
  C        17.0622227406        7.8972240020       -1.6287745985
  C        17.0830952667        8.2229572037       -3.1080070566
  C        17.6396891247        9.4524187837       -3.4457136959
  C        17.4917967544        9.9580626667       -4.7569538938
  C        17.0535074394        9.1350268787       -5.8088156987
  C        16.3766035698        7.9010758051       -5.4354292481
  C        16.3772201090        7.4639094732       -4.1276234722
  H        15.7841813506        6.5761164503       -3.8247253553
  H        15.8569631203        7.3181378910       -6.2116495214
  H        17.0976336654        9.4214485374       -6.8549031127
  H        18.0222393396       10.9031916363       -4.9934095955
  H        18.2591052606       10.0044230185       -2.7702699397
  C        15.0134524211        9.2064501591       -1.6338013166
  C        13.9520595588        9.7237927855       -0.9374856824
  H        13.1644192090       10.2498814467       -1.4434721793
  H        15.0734788321        9.1494048426       -2.7004371851
  C        18.8165389410        5.7724579275        2.6324514164
  C        18.0954896609        4.5853796212        2.9074084079
  C        18.0508577254        4.1631614779        4.2204113196
  C        18.6651404587        4.7992645288        5.2565094707
  C        19.4734350464        5.9041696875        4.9189273099
  C        19.5729457650        6.4445370990        3.6065966574
  H        20.1061558089        7.3751547909        3.2984679883
  H        20.1847269821        6.3777189057        5.6054874823
  H        18.6024606322        4.4671318464        6.2862271102
  H        17.4470568943        3.2976820017        4.4223718914
  H        17.5334244871        4.0376299496        2.1331650840
  C        21.0079866211        4.9671958157        1.1939582101
  C        22.0766663117        4.4372517588        0.5639407731
  C        22.2310364216        4.5721045226       -0.8475711614
  C        21.3291823702        5.2883689281       -1.5657217005
  H        21.4020569950        5.2953966102       -2.6297562197
  H        23.0191456583        4.0123528263       -1.3765108533
  H        22.7640932527        3.8088072261        1.1034464289
  H        20.8658949800        4.7346763274        2.2431018361
  C        19.1357400498        6.2035832565       -3.0911760663
  C        18.4163352725        5.0400563743       -3.4744649920
  C        18.4632282812        4.6087754638       -4.8238772106
  C        19.2043814539        5.3151386942       -5.7503030059
  C        19.9654873479        6.3369455721       -5.3502200704
  C        19.9256228833        6.8146181291       -4.0627813115
  H        20.5074437930        7.6963421904       -3.7745544727
  H        20.5165466832        6.9309653494       -6.0699585978
  H        19.1211558943        5.0943544297       -6.8045471006
  H        18.0884557570        3.6420142509       -5.1486179533
  H        17.8336361685        4.4767977571       -2.7855778670
