140

  C         5.4601658799       -0.4518426132       16.0725625847
  C         6.5215312199        0.1579287585       16.8008868679
  C         7.5659978113        0.7018427025       16.0457136244
  C         8.7399139374        1.2239649269       16.6740797076
  C         9.8203151167        1.8393486670       16.0579524340
  C         6.4010650405        0.4679485323       18.2478187677
  C         5.6682947781        1.6478683222       18.5845927934
  C         5.7130177548        2.0636921049       19.9345417051
  C         6.6276540186        1.4878905120       20.8671827965
  C         7.3979295970        0.3611492555       20.5235547766
  C         7.1838285178       -0.1097640097       19.2225375684
  H         8.8067259354        1.1137901950       17.7639705681
  H        10.6533262582        2.1742138510       16.6627580371
  H         4.9371008343        2.1614393606       17.9043547701
  H         5.0496143634        2.7211921844       20.4373074328
  H         6.6786989056        1.8510154502       21.8924816951
  H         8.1203940877       -0.2088035519       21.1694205324
  H         7.8648258170       -0.8816234822       18.8396367421
  C         5.4440872176       -0.4579751594       14.6063444298
  C         4.3654769933       -1.1966859366       13.8935900054
  C         3.3226946387       -1.7509440640       14.6169398491
  C         3.3846745183       -1.8063796206       16.0599498628
  C         4.4617731716       -1.2211605768       16.7619680207
  C         7.4743436901        0.8312281061       14.6050748195
  C         6.4437387169        0.2446532490       13.8503038058
  C         6.2868740548        0.7065440076       12.4325651324
  C         5.5256827929        1.9083566238       12.1370516582
  C         5.4516109704        2.4449913141       10.8734201207
  C         6.0028031587        1.7983979440        9.7630310080
  C         6.7156567263        0.5871328617       10.0687222969
  C         6.9379034638        0.0964535387       11.3625810204
  H         7.5699641622       -0.7550704583       11.4517734298
  H         7.2966884051        0.1132942165        9.2925794631
  H         6.0109726024        2.1209678899        8.7225876595
  H         4.8391891842        3.3470258061       10.7432349717
  H         5.0125433988        2.4298979381       12.9418276693
  C         8.5946094351        1.4754806116       13.9827490084
  C         9.7058298225        2.0224983936       14.6408518663
  H        10.4337467216        2.5354456026       14.0192349814
  H         8.5003558922        1.7047885484       12.9386899356
  C         4.6371511349       -1.5583472557       18.2203312175
  C         5.5297768061       -2.5178325124       18.6642977200
  C         5.6470964553       -2.8116689980       20.0382969403
  C         4.7238489155       -2.2189805484       20.9536023346
  C         3.8559491577       -1.2088618480       20.4692181474
  C         3.8270288896       -0.8960119723       19.1291874332
  H         3.1238815047       -0.1296521776       18.7479153263
  H         3.2045905369       -0.7336831097       21.1706178323
  H         4.6470360702       -2.4597506053       22.0171346319
  H         6.2989654978       -3.6433613520       20.3022967826
  H         6.0136613581       -3.0335222682       17.8670842316
  C         2.4459768380       -2.5126481371       16.7854285113
  C         1.4383198010       -3.2442895899       16.2334877472
  C         1.2568057902       -3.0717982228       14.8351929848
  C         2.1602458214       -2.3700829252       14.0019842544
  H         2.0345331139       -2.2765607686       12.9142268715
  H         0.3109781444       -3.4299384586       14.4091766308
  H         0.6807401750       -3.7713695581       16.8042681940
  H         2.6462578902       -2.6805193140       17.8112106914
  C         4.4347226909       -1.5154353365       12.4304008653
  C         5.3580665391       -2.4976851004       11.9322554464
  C         5.3448690631       -2.7910540205       10.6032411818
  C         4.4209943942       -2.3721006630        9.6845541144
  C         3.5340986274       -1.4188541427       10.1070829265
  C         3.5163388415       -1.0099254510       11.5429938081
  H         2.8480940836       -0.2265181941       11.8544404235
  H         2.8171143428       -0.8869711341        9.4289772805
  H         4.4596845880       -2.6939797486        8.6532289921
  H         6.1811498708       -3.4482759841       10.2672295391
  H         6.1028736788       -2.8200346682       12.5916478223
  C        12.7837388741       -0.2381979068       16.1053301105
  C        13.8408182978        0.3192698280       16.8711492983
  C        14.8394333988        1.0207226245       16.1260347900
  C        15.9092044179        1.6008058535       16.8253538450
  C        17.0231195281        2.1540549033       16.2240137653
  C        13.7461110493        0.6851129765       18.4484402447
  C        13.0323109862        1.8171891648       18.7929891803
  C        13.0708552410        2.3471283918       20.1156240228
  C        13.8855232219        1.6047979447       21.0477268833
  C        14.6901538975        0.5435224886       20.6133263359
  C        14.5712852483       -0.0357424245       19.3341486061
  H        15.8566747569        1.6182586330       17.9271804593
  H        17.7396811320        2.6791649779       16.7970993255
  H        12.5450509331        2.2603152932       17.9163101541
  H        12.5121375461        3.2414877361       20.4173093050
  H        13.9912670648        2.0983049858       22.0115759052
  H        15.3290597912        0.1666062099       21.4097980683
  H        15.1797264577       -0.8418806049       18.9089666050
  C        12.6452536579       -0.0590261341       14.6470539193
  C        11.6416940229       -0.7988791298       14.0184975655
  C        10.6035906661       -1.4109026737       14.6648077278
  C        10.6205748587       -1.4372291032       16.1282900723
  C        11.7599201804       -0.9557475938       16.8538606435
  C        14.7738217788        1.1310028227       14.6858993771
  C        13.6244863852        0.7520217596       13.9863604493
  C        13.6189999390        1.1573097438       12.5438376098
  C        12.6160494888        1.9939341902       12.1323059666
  C        12.5951765275        2.4110071516       10.8157738848
  C        13.5529018332        1.9897549872        9.8544467948
  C        14.4897287144        1.0377845585       10.2821217371
  C        14.5219676679        0.6733498978       11.6389403011
  H        15.1637063324       -0.1359713311       12.0574826254
  H        15.1217035849        0.5236363816        9.5981183514
  H        13.5120142545        2.1620152668        8.7727458166
  H        11.7765146215        3.1065014943       10.5483309306
  H        11.8651113035        2.3081323505       12.8594517609
  C        15.8901188678        1.7819015045       14.0801962889
  C        17.0418058218        2.0906184472       14.7802681850
  H        17.8387443451        2.4163745791       14.1676667779
  H        15.8543800935        1.7465955557       13.0145606274
  C        11.7876781882       -1.3253875960       18.3098973244
  C        12.5792158125       -2.4097173106       18.6864246836
  C        12.5742545765       -2.8136525420       20.0705937209
  C        11.6916047232       -2.2859244856       21.0102439348
  C        10.9352548837       -1.1391598409       20.5666520684
  C        11.0342167469       -0.6252861731       19.2866590239
  H        10.5368535525        0.3100162677       18.9818596733
  H        10.1617663090       -0.7343185383       21.1797820698
  H        11.6544136675       -2.7012509058       22.0471641675
  H        13.1853655448       -3.6394045304       20.4330145774
  H        13.2062839386       -2.8677542996       17.9218927396
  C         9.5792554485       -2.1408302899       16.8026378154
  C         8.5142679949       -2.7146073426       16.1394510856
  C         8.4251978460       -2.6910241673       14.6730470715
  C         9.4113962527       -2.0052457188       13.9628755873
  H         9.3991728824       -1.9741752115       12.8837741457
  H         7.4297670519       -2.9886793845       14.2725683442
  H         7.7978788743       -3.2622716072       16.7936805593
  H         9.3617888589       -2.0631889128       17.8678805437
  C        11.6845743855       -1.1785293228       12.5484604517
  C        12.4615144588       -2.2690054179       12.0783902180
  C        12.1983408415       -2.7703079534       10.7895644010
  C        11.1701203199       -2.1277776368        9.9668525984
  C        10.4758919592       -1.0051263441       10.3924156321
  C        10.7745157803       -0.5136212802       11.6788433255
  H        10.2119181986        0.2955971277       12.1010055597
  H         9.7344596842       -0.5311658810        9.7749460960
  H        10.9985247985       -2.5103885803        8.9684994515
  H        12.8780967952       -3.5825367884       10.4326847910
  H        13.3518463870       -2.5821710586       12.6771905534
