140

  C        11.2826101164        7.4675516975        1.7404399135
  C        10.1784353004        8.1037282520        2.4691195869
  C         9.0759378424        8.6783265684        1.7569446965
  C         7.8775693125        9.1803291905        2.3512910598
  C         6.7531516973        9.5304745387        1.6931327553
  C        10.2519538867        8.4820345253        3.9683657787
  C        11.1685293948        9.3588690517        4.4970091133
  C        11.1768320271        9.7776684558        5.8823132447
  C        10.2798173388        9.1503146720        6.7934392205
  C         9.3086838107        8.2301189868        6.2917416085
  C         9.2472726088        7.9719087352        4.9154379477
  H         7.7697376711        9.2954200567        3.4537079477
  H         5.8760232267        9.8935232893        2.2469298426
  H        11.8452096132        9.9293368482        3.9283202754
  H        11.8473197218       10.5561498052        6.2225030515
  H        10.1784558097        9.6205438395        7.7906970343
  H         8.6535748473        7.7736891107        6.9825733387
  H         8.5668310875        7.2849492219        4.5226426187
  C        11.2428252288        7.5264454114        0.2333662775
  C        12.1651443330        6.7522250185       -0.5729836336
  C        13.2237795964        6.1341631879        0.1215564428
  C        13.2781172123        6.0286292589        1.5229878990
  C        12.2585966966        6.6008645472        2.3658585978
  C         9.1638646172        8.7862141847        0.2791545129
  C        10.2349256005        8.2886063397       -0.4545706943
  C        10.1322286615        8.6047967104       -1.8960397541
  C        10.7858764128        9.7558858383       -2.4339893021
  C        10.7602469288       10.0002559088       -3.8090968673
  C        10.0500455918        9.1464876740       -4.6800715624
  C         9.1964904547        8.1816606741       -4.1402616193
  C         9.3086874284        7.9010922749       -2.7535586609
  H         8.6929129620        7.1244124486       -2.3067122799
  H         8.5478107114        7.5683033677       -4.7221887925
  H        10.0280301435        9.3639210977       -5.7471616675
  H        11.2445898723       10.8745720291       -4.1151125242
  H        11.3456953010       10.2992611663       -1.7072225685
  C         8.0774704945        9.4587600284       -0.3816850852
  C         6.7991174166        9.6401608094        0.1842057829
  H         5.9384843628       10.1238656406       -0.2497305276
  H         8.3116128144        9.6336623186       -1.4306262255
  C        12.1909486342        6.1850541198        3.8537311765
  C        11.1996511466        5.3140665229        4.2522818373
  C        11.1800317285        4.7559893234        5.4976343359
  C        12.1018450924        5.1865552518        6.4139016423
  C        13.0716755887        6.1286406430        6.0930260539
  C        13.1174537341        6.6759754738        4.7829345230
  H        13.8970563731        7.3283103150        4.4157093922
  H        13.7931569177        6.4620803452        6.8090223280
  H        12.1579868134        4.7076778145        7.3945205292
  H        10.4561215645        3.9413547268        5.6730790685
  H        10.4560926745        5.0649279702        3.5189843417
  C        14.3529044897        5.2663175749        2.0439335576
  C        15.3586319887        4.8225892712        1.3044087090
  C        15.3765520085        5.0953944015       -0.0663265447
  C        14.2771276465        5.5626914967       -0.6814763709
  H        14.2185004474        5.7692801491       -1.7273644782
  H        16.2165883508        4.7642433264       -0.6647819190
  H        16.1984507727        4.2782721368        1.6735343054
  H        14.2661004029        5.0806295774        3.1123098549
  C        11.9975017965        6.4313449435       -2.0541923975
  C        11.1504582517        5.3421236354       -2.3973004395
  C        11.0333268594        4.7793202565       -3.6960427012
  C        11.7482194275        5.4343447610       -4.7512223835
  C        12.5704637346        6.4851227146       -4.4550489501
  C        12.7257485522        6.9522114941       -3.1387582048
  H        13.3933520022        7.8537258840       -3.0258849912
  H        13.1529782851        6.9048565687       -5.2160657205
  H        11.5612681715        5.1495780660       -5.7709286443
  H        10.3757874760        3.9317824420       -3.8924843841
  H        10.6272439167        4.8344197587       -1.6274976938
  C        18.2146972429        7.4903742940        1.5902514463
  C        17.2141124648        8.2338809419        2.3513830525
  C        16.1175199157        8.8708363481        1.6830170965
  C        15.0919925046        9.5738184721        2.4538809275
  C        13.9438346628        9.9590090047        1.7637260920
  C        17.3130447457        8.3513526409        3.8351522184
  C        17.9032816939        9.5380437969        4.2792509036
  C        17.7381625967        9.9746022207        5.6207455013
  C        16.9074297896        9.1971527258        6.5036496413
  C        16.4156574091        7.9540347472        6.0574367521
  C        16.6211739885        7.6024374887        4.7297306818
  H        15.1543183264        9.6607855366        3.5342892186
  H        13.0741632701       10.3293699876        2.3728686071
  H        18.5298742283       10.0601689514        3.5979810376
  H        18.0500983313       11.0084245411        5.8526483142
  H        16.6229988124        9.5976653390        7.4821759435
  H        15.7904519284        7.2963027661        6.6735636255
  H        16.1091289712        6.7281978815        4.3746922232
  C        18.0681851729        7.4754116597        0.0987782402
  C        19.0163695699        6.7323367750       -0.7024401924
  C        20.1012191157        6.1142377673       -0.1056884135
  C        20.3618028248        6.1724632527        1.3252144857
  C        19.3196952576        6.6985623222        2.1518527817
  C        16.0360773281        8.8793055062        0.2590499409
  C        17.0149608264        8.2315163804       -0.5314948511
  C        17.0000415512        8.4475472068       -2.0284116024
  C        17.6666538256        9.5641251810       -2.5026947155
  C        17.3223831065       10.0562410487       -3.7426695602
  C        16.4373538134        9.3852293098       -4.5866631135
  C        15.8429747497        8.1880394436       -4.1613513401
  C        16.0979182927        7.7675592861       -2.8516395377
  H        15.5361557109        7.0130025917       -2.4255867429
  H        15.0337339167        7.7870673138       -4.8291744901
  H        16.2442784432        9.9018920979       -5.4769594382
  H        17.7557820783       11.0318801042       -4.1060730070
  H        18.3705187080       10.1234682553       -1.9069914917
  C        14.9313062471        9.4973241915       -0.2812674878
  C        13.8081319812        9.9382962287        0.3856266123
  H        12.7923727343       10.1172655564       -0.0322492121
  H        14.7472668901        9.6065656887       -1.3740598953
  C        19.3259942600        6.2514383121        3.5648732362
  C        18.4665191342        5.1244201438        3.9332742111
  C        18.3606054367        4.6664406015        5.2102164530
  C        19.0939747970        5.2713632647        6.2492263054
  C        20.0414367317        6.2331023289        5.9007394540
  C        20.1816852624        6.6643521647        4.5667857256
  H        20.9691923063        7.4307104215        4.4393460866
  H        20.7261095144        6.5651451609        6.7030356121
  H        18.9177774573        5.0537096211        7.2908813580
  H        17.6150197668        3.9507691681        5.5519305523
  H        17.8304267873        4.5933498755        3.2035958521
  C        21.5754161124        5.6677744168        1.8601652051
  C        22.4727662384        4.9182885945        1.0618713425
  C        22.1810684879        4.8156111634       -0.3039012580
  C        21.0769696361        5.4164391046       -0.8830666300
  H        20.9463651323        5.2647491116       -1.9183066031
  H        22.9528472704        4.2983957651       -0.9745855430
  H        23.4294933345        4.5779300521        1.4037811527
  H        21.8086793013        5.6885937747        2.9314539774
  C        18.8430774438        6.3876681595       -2.1633135782
  C        18.3619615327        5.1555270044       -2.5327924379
  C        18.3884986795        4.6369959990       -3.8427518674
  C        18.9397603998        5.4562542743       -4.8320622069
  C        19.5316653356        6.7161611756       -4.4854181483
  C        19.4779818280        7.1377486923       -3.1617519433
  H        19.8841345841        8.0871560736       -2.7889262548
  H        20.0620829707        7.2764527861       -5.2256959478
  H        18.9411220418        5.1747009447       -5.8713841155
  H        18.1190525993        3.6498876718       -4.0913976920
  H        18.1306592649        4.4930969197       -1.6813886944
