140

  C         3.8428576999        0.3429494290       14.9204711746
  C         4.8452584042        1.0924468001       15.5521273395
  C         5.9180221659        1.6584241473       14.8398791700
  C         6.9972051795        2.3749603931       15.4559755791
  C         8.0268290970        2.8017614105       14.6683386919
  C         4.8226013916        1.3690679375       17.0971296860
  C         4.2360642815        2.5483443457       17.5600778153
  C         4.4380019513        2.9694519502       18.8879526826
  C         5.2745570356        2.2524099719       19.7712595308
  C         5.9353830889        1.1063269064       19.2672766668
  C         5.6415088518        0.6088717478       18.0027231184
  H         6.9234196828        2.5500282928       16.5295126068
  H         8.9683465945        3.2620514882       14.9168633143
  H         3.6326355313        3.0797724708       16.8046810659
  H         3.8248606114        3.7834246200       19.3283490036
  H         5.4801820671        2.5082069507       20.8008753200
  H         6.5859493282        0.4445749330       19.8094207165
  H         6.0189841914       -0.3042579431       17.6190762502
  C         3.7035090789        0.3225652713       13.5069128156
  C         2.6994965065       -0.3774040457       12.8435475757
  C         1.6425714528       -0.9753168855       13.6058814187
  C         1.7977131296       -1.0845293574       15.0020418170
  C         2.8818353283       -0.4638783082       15.6602209727
  C         5.8386472079        1.5141941395       13.3896758340
  C         4.6580670539        1.0317656554       12.7677309698
  C         4.5802233568        1.4136238336       11.3567332216
  C         3.7198798157        2.4908888845       11.0927617370
  C         3.3171349191        2.9397824378        9.8503654347
  C         3.9203502045        2.3499330715        8.7253035261
  C         4.8886622039        1.3995838212        8.9604428844
  C         5.2732356333        0.9477607390       10.2794836726
  H         5.8852273264        0.0842646659       10.3034084908
  H         5.4082611381        0.9230526570        8.1545405064
  H         3.7126675304        2.7425437862        7.6920865054
  H         2.6042172404        3.7345612799        9.7634482143
  H         3.3550962285        2.9015913995       12.0289778721
  C         6.9318509004        2.0666917328       12.6489296131
  C         8.0010824010        2.6441092705       13.2252754235
  H         8.7701263139        3.1447117974       12.6990104383
  H         6.8185756350        2.0860427494       11.5579386307
  C         3.0950469831       -0.7835281888       17.0919717921
  C         3.7613846341       -1.9876688605       17.3596014918
  C         3.9357118508       -2.4529150845       18.6144822694
  C         3.3282964619       -1.8310113792       19.7419301468
  C         2.5720853381       -0.6827989862       19.4726954437
  C         2.5254944170       -0.1293152671       18.1809078032
  H         1.8454402124        0.7181420944       18.0174530708
  H         1.9605265013       -0.2901143177       20.2145579560
  H         3.5318381757       -2.1226898831       20.8019940921
  H         4.4676533570       -3.3762417768       18.6828471585
  H         4.2018066884       -2.5149032723       16.4632725232
  C         0.8758963541       -1.8552077571       15.7685949928
  C        -0.2068270190       -2.4027989105       15.1575142598
  C        -0.3694696156       -2.3377443079       13.7447867378
  C         0.5693799910       -1.6509644357       13.0140124267
  H         0.4034106689       -1.5950827936       11.9615664588
  H        -1.2051124551       -2.8132969523       13.2183666679
  H        -0.8776046773       -3.0676085042       15.8186044226
  H         1.0997782443       -2.1213245126       16.8570970041
  C         2.7423340235       -0.6607518212       11.4171193018
  C         3.4897827060       -1.7569774284       10.9324771411
  C         3.4544478130       -2.1892587778        9.6302475249
  C         2.5240400025       -1.6970821317        8.6713478998
  C         1.7328677931       -0.6542699737        9.0944837332
  C         1.8616788444       -0.1458742711       10.4002303569
  H         1.3242339300        0.7225062093       10.7406215789
  H         1.0708585343       -0.1880673591        8.3989987218
  H         2.5717876303       -2.1148222346        7.6699335308
  H         4.0416334035       -3.0390628320        9.3695331181
  H         4.2087450388       -2.1867701890       11.6079595919
  C        11.0993158818        0.2041834292       14.7880529978
  C        12.1493344854        0.8131855401       15.5033813221
  C        13.1490665780        1.4616296599       14.7162242782
  C        14.0622757872        2.2572801260       15.4129994846
  C        15.1868444768        2.8249313936       14.7527220050
  C        12.1480038944        1.2128741784       16.9213132849
  C        11.2432469752        2.2027728233       17.4208079088
  C        11.3431167980        2.5909751871       18.7974342248
  C        12.3805606787        2.0501662313       19.5837916905
  C        13.2180522155        1.0374102433       19.1036073865
  C        13.0327022149        0.5395317421       17.8058542958
  H        14.0855518476        2.3067143067       16.4744435631
  H        16.0630674670        3.2728822351       15.2227925449
  H        10.4848497199        2.6351681808       16.7419088366
  H        10.6242012433        3.2460041042       19.2412851913
  H        12.5195543697        2.2498718927       20.6542984652
  H        13.9290492909        0.5672904890       19.8022833350
  H        13.5684830075       -0.3377401890       17.4976832480
  C        10.9689945988        0.3032739547       13.2889268817
  C         9.8825869422       -0.3030772400       12.6030457432
  C         8.7996824390       -0.8016811404       13.3917253594
  C         8.9013353803       -0.9431871925       14.8139834264
  C        10.0316657126       -0.4862122648       15.4822716959
  C        13.1789512338        1.4538285865       13.2642384920
  C        12.0169204136        0.9364885145       12.5628739821
  C        11.9714250477        1.2275825415       11.1434613628
  C        11.2775426632        2.3013355392       10.6436196020
  C        11.1927510932        2.5832821397        9.3053268607
  C        11.8579189538        1.8342647560        8.3623498916
  C        12.6596984389        0.7205973848        8.8040323454
  C        12.6595166983        0.4112420220       10.1803392293
  H        13.3046587556       -0.4435387798       10.5902314027
  H        13.2179479796        0.1138811690        8.1227872133
  H        11.8518685776        2.0876199036        7.2873952678
  H        10.5313757070        3.4103761785        8.9439620028
  H        10.7074619626        2.9654298323       11.2812192615
  C        14.3210488419        2.0131924842       12.6380342597
  C        15.3050150214        2.6482275466       13.3498948436
  H        16.2685349045        2.9572605258       12.8954090615
  H        14.4225198919        1.9283656222       11.5843258923
  C        10.1621570211       -1.0538707547       16.8687170779
  C        11.2321866932       -1.9323316068       17.0739481202
  C        11.3444151067       -2.6412265834       18.2604428625
  C        10.4865553958       -2.4699021122       19.3320730874
  C         9.3991726196       -1.5862135723       19.1038762188
  C         9.2411600971       -0.8642851557       17.9331002572
  H         8.3518753026       -0.2250542661       17.7597236801
  H         8.6631318492       -1.5745676832       19.9311332420
  H        10.6616649975       -3.0706206301       20.2232174290
  H        12.0555578682       -3.4912054325       18.2632857434
  H        11.8140655568       -2.1007555179       16.1723141766
  C         7.9180899323       -1.7494638781       15.4745184855
  C         6.8363933926       -2.2536777917       14.8186116994
  C         6.6646228663       -2.0249978481       13.4623404069
  C         7.5954576296       -1.3488902448       12.7909482898
  H         7.3486005822       -1.1833099619       11.7454652146
  H         5.7317441983       -2.3698516441       13.0097743000
  H         6.1436425931       -2.8712808732       15.4077866765
  H         7.9783858188       -1.9710166122       16.5146407943
  C         9.7841496207       -0.6251831582       11.1493950702
  C        10.3631773711       -1.8219399518       10.6963873380
  C        10.1766717423       -2.2494840406        9.3963465211
  C         9.3098450274       -1.5314841041        8.5819753347
  C         8.5841089938       -0.4551751850        9.0742043294
  C         8.8869350172        0.0924868884       10.3402699915
  H         8.5861978554        1.0488040701       10.7607350419
  H         7.8351117011        0.1388084706        8.5778164355
  H         9.3151588743       -1.7747665031        7.5159275566
  H        10.7836879678       -3.0615130155        9.0454321561
  H        10.9616183230       -2.4544304942       11.3827543667
