140

  C         3.9814176189       -0.3600229214       14.2805502285
  C         5.0428640129        0.3715767629       14.9626789500
  C         5.9764284585        1.1024238524       14.2561135589
  C         6.9929418780        1.8561938453       14.9079877361
  C         7.8589943205        2.5849268074       14.1494488110
  C         4.7715085262        0.7710227786       16.4059565870
  C         3.7923099742        1.7431268749       16.5640468554
  C         3.5059103341        2.2851600756       17.8110054800
  C         4.3243495101        1.9888836238       18.8870853428
  C         5.4823834871        1.1504410888       18.7188162668
  C         5.6910218874        0.5198840772       17.4734360081
  H         6.8976745168        2.0434625625       15.9862765720
  H         8.6636884286        3.1797069278       14.5528948787
  H         3.2724291280        2.0642675094       15.6277663802
  H         2.6241163991        2.9237255795       18.0271646046
  H         3.9971845826        2.3817393416       19.8420695873
  H         6.1398217820        0.9872805929       19.5943261693
  H         6.3572977923       -0.3060839030       17.2454705085
  C         3.8717544877       -0.2672130502       12.7614678690
  C         2.7911310786       -0.9724005519       12.0770879937
  C         1.8335033618       -1.5818479589       12.8921335585
  C         1.9357413023       -1.7495432690       14.3409218150
  C         2.9517886162       -1.1262256311       15.0178015687
  C         5.8476306330        1.0925402090       12.8260213561
  C         4.8578001062        0.4520894139       12.0979391531
  C         4.8796154115        0.7550663235       10.5557564296
  C         4.0631209869        1.8157525921       10.1525167408
  C         4.0440762884        2.1585546957        8.8198487476
  C         4.8964372835        1.5432730335        7.9153474520
  C         5.7285524239        0.5112504237        8.3069613036
  C         5.6474669294        0.0044777166        9.5996647224
  H         6.1276363385       -0.8939099389        9.8725684766
  H         6.4154919499        0.0698477112        7.6319893287
  H         5.0235184959        2.0282771320        6.9468890852
  H         3.2326668412        2.7953567232        8.4277342703
  H         3.3687675115        2.3325505939       10.8835422294
  C         6.8407356355        1.8169803937       12.0472529398
  C         7.8679880286        2.4261662329       12.6905646482
  H         8.5893777544        2.9382385244       12.0861334253
  H         6.8342596125        1.7419325787       10.9572333392
  C         3.0469798811       -1.3648765042       16.5156787871
  C         3.7949627302       -2.4159209847       17.0169637224
  C         3.6880541872       -2.8337707067       18.4162677724
  C         2.8364116936       -2.1535244905       19.2738009442
  C         2.0435516817       -1.0939961215       18.7102971927
  C         2.1141173501       -0.7152126874       17.4081530081
  H         1.5408506808        0.1630390290       17.0799317932
  H         1.4437056210       -0.4795813029       19.3826775503
  H         2.7438510237       -2.5164038420       20.2720773185
  H         4.3676390860       -3.6548168868       18.7222855594
  H         4.4092582744       -3.1035737271       16.3953240631
  C         0.8993409193       -2.4420575907       15.0783358125
  C        -0.1496907654       -3.0248557825       14.4362037537
  C        -0.2459896400       -2.8739013021       13.0318928431
  C         0.6319131473       -2.1953093097       12.2584741814
  H         0.5654413139       -2.2689213193       11.2142490433
  H        -1.0697075371       -3.4478505570       12.5937227737
  H        -0.9729901610       -3.5538374956       14.9549847822
  H         0.7725574922       -2.3429226830       16.0993563575
  C         2.8034815598       -1.2776869695       10.6417827498
  C         3.5859338841       -2.2798051999       10.0280196276
  C         3.5298587505       -2.5618341201        8.6714939391
  C         2.6348840744       -1.8832865246        7.8614059234
  C         1.8524485237       -0.8012944841        8.3930926973
  C         1.9712492892       -0.5026507240        9.7684082852
  H         1.4826093696        0.4188369064       10.1301697084
  H         1.1954373468       -0.1699032212        7.8013890484
  H         2.6742291408       -2.0202248620        6.7677409470
  H         4.1692458851       -3.2833174708        8.2901431078
  H         4.2576935860       -2.8458362765       10.6656690593
  C        11.1331328734       -0.2671708119       14.0532190960
  C        12.2631044991        0.4418932984       14.6212068255
  C        13.3124921218        1.0359359244       13.8438605046
  C        14.4186984714        1.7992254523       14.4458191097
  C        15.3549734071        2.4712293155       13.6560153284
  C        12.0464471106        0.8474160640       16.0533780560
  C        10.9694854308        1.7291159977       16.4300369429
  C        10.9376254877        2.2431950390       17.6993266159
  C        11.9870458586        1.9875752638       18.5808954233
  C        13.1026811366        1.2034769447       18.2418967919
  C        13.1205824903        0.6696047397       16.9546171270
  H        14.3637098050        1.8880862445       15.5347637862
  H        16.1499599899        2.9112894099       14.1965608101
  H        10.2809675359        2.1614417821       15.6969677515
  H        10.1358048503        2.8740668504       18.0557780732
  H        11.8441375190        2.4049678287       19.6240441108
  H        13.9396725844        1.0448642612       18.8989406576
  H        13.8778500004       -0.0885519260       16.6663535581
  C        11.0891419798       -0.2533590023       12.5381537286
  C        10.0529867832       -0.9632966898       11.9015506543
  C         9.0188538655       -1.5862341975       12.6353246451
  C         9.0082919652       -1.4747880995       14.0776886386
  C        10.0965268668       -0.9720864223       14.8095315201
  C        13.2162724669        1.0269950123       12.3960844343
  C        12.0608847947        0.4424561919       11.7361163399
  C        11.8062007500        0.8697101598       10.2399461624
  C        10.7305506724        1.7219193051       10.0141271724
  C        10.4696748095        2.0800298740        8.6748793933
  C        11.2285806684        1.6608405024        7.5803338935
  C        12.3403606181        0.8068238582        7.8872342954
  C        12.6072504693        0.4448411663        9.1962319299
  H        13.4088036325       -0.2858936950        9.4683401125
  H        12.8525505658        0.3207123103        7.0552160545
  H        10.9784361832        1.8278517926        6.5537827151
  H         9.5965857554        2.7179353426        8.4671663328
  H        10.1188435323        1.9969352905       10.8556079548
  C        14.0889791717        1.8486290972       11.6427961558
  C        15.1715290311        2.5095207573       12.2498715549
  H        15.7452624681        3.1935476947       11.5973027764
  H        13.8590495386        2.0301656929       10.5612917703
  C        10.2025799570       -1.2726565892       16.3046837671
  C        11.2890663293       -2.1950946333       16.6411613531
  C        11.5195432016       -2.5968845480       17.9516415368
  C        10.6644444168       -2.1055466500       18.9468775598
  C         9.5811572102       -1.2300935958       18.6615677069
  C         9.3166158502       -0.8539695918       17.3209292075
  H         8.4051500944       -0.2924280960       17.0567434760
  H         8.9012274219       -0.8736566846       19.4702238178
  H        10.7864968653       -2.3295521665       19.9883772008
  H        12.3602800442       -3.2706926262       18.2229619707
  H        11.9783106835       -2.5120463187       15.8614636992
  C         7.9055981946       -2.2015316511       14.6781035794
  C         6.8346234369       -2.6645769821       13.9873740051
  C         6.8220363855       -2.6058945818       12.5458824107
  C         7.9814625067       -2.2230906476       11.8957665620
  H         8.0578226101       -2.3555182873       10.8083281548
  H         5.9928710240       -3.0548260457       11.9925196713
  H         5.9903925033       -3.1466845225       14.4572380395
  H         7.9901871846       -2.2982497768       15.7867419093
  C        10.2535514511       -1.4123544602       10.4252923363
  C        11.3469049263       -2.2094535380       10.0973216206
  C        11.4474273094       -2.6751247989        8.7942077908
  C        10.5235811419       -2.4504517105        7.8005759299
  C         9.3953792083       -1.6341257128        8.0860083518
  C         9.2931200623       -1.1522015084        9.4186847408
  H         8.5122542035       -0.4303116497        9.6603455635
  H         8.7008434800       -1.4471137678        7.2794750034
  H        10.5894277855       -2.8591940993        6.7869272521
  H        12.3331963060       -3.2256297021        8.4721015618
  H        12.0938782817       -2.5192802477       10.8549243328
