140

  C         3.2109464543        0.0612860614       14.5850918915
  C         4.2709274412        0.7968653199       15.2530242386
  C         5.2848330924        1.3749587472       14.5639716223
  C         6.3314461995        2.0478912956       15.2522034911
  C         7.4545843745        2.5308579466       14.5025849666
  C         4.1300676228        1.2630411366       16.6421049590
  C         3.3166469528        2.3900692609       17.0433554116
  C         3.4882687374        2.8911117014       18.3130267472
  C         4.2492213038        2.3281429853       19.3284860951
  C         5.0087874495        1.2401667643       18.9497730604
  C         4.9522514795        0.7003868517       17.6783494814
  H         6.3405398991        2.0219408269       16.3129321116
  H         8.2315712815        3.0874079136       14.9389647667
  H         2.6404857068        2.9981645196       16.4128556779
  H         2.9304273285        3.8072739717       18.4138152384
  H         4.3248662262        2.6286912489       20.4095397983
  H         5.6365753184        0.8581116253       19.7333127781
  H         5.5097837491       -0.2216402486       17.5946949010
  C         3.0524873310        0.1738688053       13.1328361656
  C         2.0913106288       -0.4732882777       12.3769148399
  C         1.1037428793       -1.1646153823       13.1111918681
  C         1.1025381471       -1.1731697459       14.5596200710
  C         2.1824841892       -0.6098269301       15.2947413695
  C         5.1831003769        1.4711408188       13.0961757900
  C         4.0279761772        1.0554714523       12.4632310004
  C         3.8581043130        1.4442543078       11.0354474302
  C         2.8587542212        2.3353802698       10.5784205369
  C         2.8434857662        2.8137550116        9.2464074497
  C         3.9130057433        2.3622388792        8.4849818008
  C         4.8815396537        1.3658028262        8.8613522528
  C         4.8535555257        0.9347830586       10.1627045448
  H         5.4793949126        0.1070655855       10.5995344865
  H         5.5168291994        1.0958389724        8.0449970766
  H         3.9520760630        2.7109309722        7.4553566827
  H         2.1139571829        3.5693652286        8.8999272933
  H         2.2233693858        2.7815812683       11.3129610152
  C         6.2909649713        2.1213590568       12.4401924635
  C         7.4273933742        2.5272363993       13.0644989709
  H         8.2092254655        3.0695748239       12.5592146635
  H         6.2237462656        2.3293276065       11.3537911465
  C         2.2357405511       -1.0557908230       16.7289950721
  C         3.0829987164       -2.1346564066       17.1519323449
  C         3.0863131422       -2.4613873225       18.5032530852
  C         2.2170140501       -1.9258953338       19.4075427877
  C         1.4119144709       -0.8578925041       18.9991883230
  C         1.4201579933       -0.4155414094       17.6467743203
  H         0.7838657491        0.3737933852       17.2884819226
  H         0.6559385392       -0.4059683084       19.5855231341
  H         2.2502794199       -2.2430849803       20.4619658976
  H         3.8703184415       -3.2278857696       18.8034516677
  H         3.8138990256       -2.5697163425       16.4615884666
  C         0.0515616778       -1.9151150552       15.2175067838
  C        -1.0439893613       -2.4443772960       14.5252509421
  C        -1.0780044700       -2.4281702912       13.1495838721
  C         0.0383652075       -1.9007244073       12.4792074659
  H         0.0334756038       -1.9387604826       11.3598788440
  H        -1.9045664685       -2.8498126480       12.6085600044
  H        -1.9901312842       -2.6971475416       15.0056531683
  H         0.0381242539       -2.0044077418       16.2973654655
  C         2.1790116953       -0.8252178489       10.8272540488
  C         3.0070967476       -1.8718825729       10.4454888275
  C         2.8860220270       -2.3257963405        9.1567340379
  C         1.9012139496       -1.9394107408        8.2613394092
  C         0.9997097214       -0.9584321625        8.6861578393
  C         1.1669786758       -0.3757251997        9.9867871994
  H         0.5607563865        0.4826332925       10.3012109288
  H         0.0812211405       -0.6475365611        8.1485450683
  H         1.8231453495       -2.2678403641        7.1825864560
  H         3.6454711317       -3.0344548668        8.9359644731
  H         3.7639045752       -2.3218471050       11.1043852099
  C        10.2019537311        0.0646817310       14.5924452607
  C        11.2345300664        0.7252949208       15.3188619213
  C        12.2651132849        1.3542119780       14.5846197606
  C        13.1643879745        2.1699575859       15.3198855475
  C        14.0834663805        2.9165976033       14.6430895164
  C        11.1890324422        1.1306484595       16.7430788735
  C        10.2905100367        2.2010782037       17.0212751948
  C        10.2553423831        2.7532959174       18.3093360610
  C        11.0857918954        2.1785970032       19.3455479809
  C        11.9798249435        1.0804334753       19.0312919983
  C        12.0369023684        0.5407011834       17.7056133106
  H        13.0101352058        2.4337203913       16.3436249805
  H        14.7116243350        3.6075042855       15.2063319712
  H         9.6871081113        2.6950283532       16.2534130982
  H         9.6297045676        3.5437566358       18.6349636934
  H        10.9836581445        2.6258908544       20.3516722979
  H        12.6714228195        0.7363255400       19.7446509587
  H        12.7244655249       -0.2047296350       17.3777416039
  C        10.1512468212        0.0713695047       13.1369228224
  C         9.0959334544       -0.5360084543       12.4740450974
  C         8.0049080781       -1.1270659069       13.2244175619
  C         8.0232006324       -1.0541503543       14.6767100636
  C         9.2012766819       -0.6069573181       15.3343487150
  C        12.2869989634        1.3549144617       13.1116597281
  C        11.2054463050        0.8578208768       12.4259350650
  C        11.1327597417        1.1388436126       10.9029206974
  C        10.3600374681        2.2601068456       10.4198983682
  C        10.5954222632        2.8120414537        9.1443697533
  C        11.4465208226        2.1093595956        8.2273032547
  C        12.0792976474        0.9548104679        8.6958198521
  C        11.9915719826        0.4905219627       10.0231930267
  H        12.5962350367       -0.3259518281       10.4126303335
  H        12.7124181698        0.3630465432        8.0812391353
  H        11.8151233412        2.3922163387        7.1559216607
  H        10.1597132008        3.7875657011        8.8906251850
  H         9.7213116936        2.7692160635       11.0864469927
  C        13.4580972001        1.9193341986       12.4643103188
  C        14.2596173285        2.7312559575       13.2042198116
  H        15.1932624949        3.1586017508       12.7025882097
  H        13.5151557285        1.8502986287       11.3815861305
  C         9.3482995592       -0.9470429007       16.8657387306
  C        10.1460686100       -2.0083377109       17.3257552518
  C        10.0654949450       -2.4479409390       18.6881171298
  C         9.2535211612       -1.6826125678       19.5682139644
  C         8.4518076725       -0.6244852027       19.1073417293
  C         8.4954974638       -0.2187340631       17.7868208729
  H         7.9082604530        0.6926077963       17.5162713736
  H         7.8555242342       -0.0580347071       19.7994647526
  H         9.1298256230       -1.9758909383       20.5832515469
  H        10.5494514907       -3.3330370929       19.0486136535
  H        10.7499948592       -2.5519555915       16.6089602256
  C         6.8367643250       -1.6249243771       15.3448374087
  C         5.8340124374       -2.2351156631       14.6536471901
  C         5.8083874099       -2.2647497448       13.1790505832
  C         6.8625629894       -1.7085035163       12.5548118776
  H         6.8010247895       -1.6042509021       11.4303403524
  H         5.0035027745       -2.8020252931       12.6831595455
  H         5.1298942967       -2.8180015000       15.1679596759
  H         6.7720876589       -1.7003449492       16.4254271072
  C         9.2590977890       -0.9860585925       11.0193510006
  C        10.2818746252       -1.9104888579       10.6722492090
  C        10.4203654909       -2.3911126028        9.3811810926
  C         9.4887112735       -1.9846726054        8.4042100095
  C         8.4318488364       -1.0780639138        8.7314527395
  C         8.3947602510       -0.5008623792       10.0086394036
  H         7.7197737724        0.3104388450       10.1178203512
  H         7.7071826199       -0.6961376022        8.0183326256
  H         9.6472002153       -2.3344601914        7.3821259587
  H        11.1070342930       -3.1894699376        9.2323610145
  H        10.9505345725       -2.2853825890       11.3978999807
