140

  C         3.2283720867        0.1156331873       14.7278016419
  C         4.3640378995        0.7821568648       15.3676973827
  C         5.4734607466        1.2955135228       14.5965916520
  C         6.6340036318        1.8438548550       15.1547254745
  C         7.7357611009        2.2558366046       14.4054897032
  C         4.2312104173        1.2335959805       16.8287491676
  C         3.4960829244        2.3244363563       17.2843938123
  C         3.6359927663        2.7908527635       18.5719124509
  C         4.5614365483        2.2567801024       19.4790917793
  C         5.3057606360        1.1264306670       19.1216563439
  C         5.0149626880        0.6338434523       17.8295801486
  H         6.7671286780        1.8680457256       16.2322859127
  H         8.6130029529        2.6146107099       14.9541584577
  H         2.7772632173        2.8162288338       16.6167582430
  H         2.9268560219        3.5188316757       18.9959288711
  H         4.8171746254        2.7552360191       20.3825708806
  H         6.1243061714        0.6876016675       19.7600295141
  H         5.5098158053       -0.2796435909       17.5542300629
  C         3.2879032715       -0.0248304666       13.2542429980
  C         2.2611947447       -0.7354775650       12.5715475265
  C         1.1742107701       -1.2541391784       13.2823807266
  C         1.1957985950       -1.1887523603       14.7364685895
  C         2.2185472969       -0.5773222707       15.4628341960
  C         5.4106405620        1.2509346216       13.1745891176
  C         4.2832945789        0.7369936117       12.5150018577
  C         4.0398462229        1.2405698673       11.1470876261
  C         3.2293228097        2.3443041105       10.9620514540
  C         2.9756142210        2.7116311038        9.6294510576
  C         3.5953002007        2.1242012350        8.5355353581
  C         4.5168572939        1.0729559906        8.7592381424
  C         4.7239631181        0.6083750448       10.0635400251
  H         5.2934824078       -0.2865664588       10.2963288930
  H         5.0210590235        0.7520965658        7.8799408820
  H         3.4010299860        2.4461696470        7.4988307983
  H         2.2274370438        3.4550844097        9.4566522775
  H         2.6518241602        2.8246746896       11.7348541321
  C         6.5386355906        1.7691997228       12.4541970453
  C         7.6731806063        2.2928195965       13.0391781011
  H         8.5507753021        2.6382277454       12.3912610166
  H         6.4898614044        1.6220593820       11.4169091973
  C         2.2042187851       -0.8664870201       16.9645322930
  C         2.9834331192       -1.9371892961       17.4340736777
  C         2.9365973483       -2.2839663883       18.7756663970
  C         2.1462732669       -1.5321817165       19.6879933411
  C         1.3486001617       -0.5278593275       19.2647328860
  C         1.4243828832       -0.1050823363       17.8925080134
  H         0.9246951289        0.8322638472       17.4292243729
  H         0.7658026290        0.1292702160       19.9282590007
  H         2.1091540461       -1.8379881004       20.6990083711
  H         3.4935411245       -3.1451479543       19.1723843864
  H         3.6049249723       -2.4744977062       16.7259798651
  C         0.1537541708       -1.9218117566       15.4680074290
  C        -0.8436278117       -2.5062137711       14.7423655054
  C        -0.8762770300       -2.6988487175       13.3435425449
  C         0.0644405672       -1.9792195154       12.5882140965
  H         0.0650106182       -2.1482477241       11.4912220219
  H        -1.7527420923       -3.1748626732       12.8373121302
  H        -1.7707360238       -2.8528997774       15.1993431533
  H         0.1075218716       -1.7924032283       16.5416569578
  C         2.3587552738       -1.2323393508       11.0973812326
  C         3.3302866496       -2.1569722815       10.6797858414
  C         3.4222152915       -2.5783874029        9.3384983264
  C         2.5474259089       -2.0630498724        8.4350085620
  C         1.5471930661       -1.1596459227        8.7554143816
  C         1.5337081955       -0.6730312830       10.0819264198
  H         0.7931532922        0.0650175444       10.4108855151
  H         0.9891268134       -0.6999117189        7.9910288163
  H         2.5587250302       -2.3278070873        7.3475431735
  H         4.2102313966       -3.2431569563        8.9897949057
  H         4.0490219845       -2.5495283345       11.4626181439
  C        10.4758786052        0.0709475298       14.3052085826
  C        11.5573292457        0.7935107452       14.9246083089
  C        12.6650621470        1.2398508600       14.2377596865
  C        13.6266102751        2.1698871749       14.8755330010
  C        14.7463916314        2.6253111673       14.1964127559
  C        11.4610917502        1.1962858758       16.3447613070
  C        10.5733107114        2.1903673330       16.7353908505
  C        10.6332580526        2.7463866633       18.0129367894
  C        11.4508935140        2.2824968036       18.9990858826
  C        12.3535814703        1.2255405297       18.6064528722
  C        12.4077800376        0.6880638991       17.3139074424
  H        13.5506412793        2.3558011765       15.9508178398
  H        15.6056128445        3.0643077813       14.7433533356
  H         9.8908167748        2.6676790432       16.0930961481
  H         9.9386678024        3.5585238953       18.1869081853
  H        11.3794807842        2.6188538544       19.9992101550
  H        12.9636330502        0.8079943078       19.3761406601
  H        13.0755790974       -0.1338354969       17.0608629666
  C        10.5024198527       -0.0677315623       12.8364438489
  C         9.4319071989       -0.7806515795       12.2575350837
  C         8.3671944954       -1.2708311995       13.0531070774
  C         8.4044855963       -1.1861726069       14.5290650442
  C         9.4516532268       -0.5096305339       15.1569950417
  C        12.7127398151        1.1266506106       12.7841967192
  C        11.6162064069        0.5856734994       12.0784272294
  C        11.5642012117        0.9880433168       10.5952972031
  C        10.7103744108        2.0702964564       10.2492443391
  C        10.7219118950        2.5522715857        8.9354966542
  C        11.5670901629        1.9490817956        7.9790409431
  C        12.4156903162        0.9461175595        8.3741594423
  C        12.3443099142        0.3919594678        9.6288035862
  H        13.1172906218       -0.4176262020        9.7793055592
  H        13.0749221765        0.5015470022        7.6226457641
  H        11.6676259364        2.3217095988        7.0074035746
  H        10.0762732835        3.4162769782        8.6078020600
  H        10.0194859547        2.4558561102       11.0073009058
  C        13.9491207183        1.5732419200       12.1548577501
  C        14.8997731736        2.2657018818       12.8032585518
  H        15.8291014007        2.4973109492       12.3122321288
  H        14.1255719318        1.2051772360       11.1576626172
  C         9.6026310508       -0.8961664341       16.6232476290
  C        10.5834975141       -1.8451341293       17.0216756248
  C        10.6734056793       -2.1349168487       18.4025625290
  C         9.8088382252       -1.6662635324       19.3785736718
  C         8.8046441403       -0.7747365766       18.9017583085
  C         8.7085163767       -0.4050021708       17.5921735919
  H         7.8930660309        0.3005008062       17.3965450265
  H         8.0387332546       -0.3683261615       19.5675666355
  H        10.0094889002       -1.7128229730       20.4292538243
  H        11.5298427044       -2.7702768327       18.6348206414
  H        11.3314125414       -2.2631364025       16.3621337910
  C         7.3387527291       -1.8132449556       15.3136077202
  C         6.3314447723       -2.4953878642       14.6360107827
  C         6.3222040140       -2.5424921293       13.2164426254
  C         7.2549841142       -1.9235185274       12.4549205844
  H         7.1840894210       -2.0094254583       11.3241901129
  H         5.6098314502       -3.1463495308       12.7647662384
  H         5.6236289881       -3.0375200387       15.2167840235
  H         7.3116027588       -1.7733382001       16.3991554157
  C         9.5684645581       -1.1285612605       10.7665790635
  C        10.4293229649       -2.1485646238       10.3280284804
  C        10.4075425857       -2.5338635926        8.9886813943
  C         9.4090895918       -2.0191738802        8.1423926164
  C         8.5496033532       -1.0558480197        8.5615831309
  C         8.7100757695       -0.5491132745        9.8621706077
  H         8.0920140571        0.3128728053       10.1785612682
  H         7.8012742200       -0.7025614962        7.8528858267
  H         9.3520757250       -2.2989103881        7.0937788756
  H        10.9633732559       -3.3404701509        8.4966437096
  H        11.1114599098       -2.4984949166       11.1014513254
