140

  C         2.0201492654        0.5898667067       14.8932743420
  C         3.0132968399        1.3783655180       15.6070128413
  C         4.1522410054        1.8762549581       14.9260416192
  C         5.2007654573        2.6387142271       15.5387006860
  C         6.2875130961        2.9590675719       14.7882739733
  C         2.8751936225        1.7519973492       17.0229716785
  C         2.0141859536        2.7487128307       17.4719340119
  C         2.0343306832        3.1710966613       18.7734387923
  C         2.9119623147        2.6766622838       19.7224727570
  C         3.8029119572        1.6760289799       19.2544081114
  C         3.7741812060        1.1910823710       17.9766140383
  H         5.0219292491        2.8910769286       16.6118032456
  H         7.1306333274        3.4726106136       15.2474525713
  H         1.2286075989        3.1579636706       16.8442841183
  H         1.2844955047        3.9029617076       19.0515665018
  H         2.7525538445        2.9161728067       20.7614698131
  H         4.4461064193        1.1296862927       19.9418917499
  H         4.3424302694        0.3227305732       17.6207627032
  C         2.0506015909        0.4168279254       13.4338726107
  C         1.1084424656       -0.2717818784       12.6969708484
  C         0.0391999754       -0.8726892059       13.4111143336
  C         0.0224019206       -0.8601695339       14.8758071661
  C         1.1349339905       -0.2714967980       15.5843219109
  C         4.1580660827        1.7203788717       13.4663413098
  C         3.0795910553        1.2066664224       12.7777745945
  C         3.0399118848        1.5058449379       11.2644647992
  C         2.1080883430        2.3834039422       10.7220827647
  C         2.1466998574        2.6611257639        9.3526718873
  C         3.1981744263        2.2091599433        8.5729453848
  C         4.0031463707        1.2239639843        9.1279562963
  C         3.8488647681        0.7113854845       10.3863829258
  H         4.5464374174       -0.0635557910       10.6993862769
  H         4.8834131279        0.7761342594        8.5473614417
  H         3.2966592359        2.6170852588        7.5581487075
  H         1.4465452732        3.3926633724        8.9798403463
  H         1.2685784634        2.8578070109       11.2864439011
  C         5.2768416091        2.2248365437       12.7669475897
  C         6.2606628679        2.8436723907       13.4062069312
  H         7.1087023899        3.2478842686       12.8147338131
  H         5.2666112630        2.1795108452       11.6671900881
  C         1.3062660904       -0.7057222248       16.9952235086
  C         2.3007986064       -1.6213555016       17.3217601856
  C         2.5706842440       -2.0339820631       18.6789519116
  C         1.6896723579       -1.5861461773       19.6690861206
  C         0.6626315002       -0.7042789548       19.3518669917
  C         0.5064228769       -0.2924358313       18.0462556408
  H        -0.1952722399        0.5050655783       17.8718488126
  H        -0.0583927739       -0.4068350832       20.1000939486
  H         1.9272683187       -1.9201905653       20.6912408533
  H         3.4599936489       -2.7370256356       18.8512182967
  H         2.9017997512       -1.9998853430       16.4857066882
  C        -1.1384807639       -1.4745039109       15.4915112525
  C        -2.2262646922       -1.8519337487       14.7788045745
  C        -2.1396348261       -1.9455877351       13.3894879285
  C        -1.0696316167       -1.5638460485       12.6961628310
  H        -1.0962935876       -1.4474197784       11.6283291674
  H        -2.9538866454       -2.3458057544       12.8514489415
  H        -3.0374937128       -2.2955009433       15.4068534306
  H        -1.2645786571       -1.4653351212       16.5616468186
  C         1.2121552941       -0.7367196505       11.2960462693
  C         2.0213892100       -1.7415394779       10.8569933860
  C         1.9890033965       -2.1863457925        9.4984763449
  C         1.2473770898       -1.4932818379        8.5621844139
  C         0.4768973334       -0.3802986769        8.9478852843
  C         0.4558666620       -0.0373975992       10.2958813791
  H        -0.3748185234        0.6575021841       10.5571091223
  H        -0.2262495736        0.1214613793        8.2269767852
  H         1.1822820236       -1.8991914687        7.5679900553
  H         2.6387639710       -2.9949535280        9.2461108558
  H         2.5612369952       -2.2077144998       11.7111690233
  C         9.4150232172        0.7683321609       14.8553482082
  C        10.4905516347        1.5100060982       15.4073390902
  C        11.6524929433        2.0634501010       14.7418517954
  C        12.7426334040        2.7181412302       15.3827022465
  C        13.7542662197        3.1870127563       14.5929729546
  C        10.4255602078        1.8576798943       16.8933359752
  C         9.5564891137        2.8861363812       17.2683641483
  C         9.4981862449        3.4079004584       18.5202510405
  C        10.4144297355        2.8284897903       19.4532059702
  C        11.3115441869        1.8213043814       19.1531124230
  C        11.3287994234        1.3382562651       17.8368307126
  H        12.6991479689        3.0412151458       16.3960521406
  H        14.4373075565        3.7782083995       15.1346303795
  H         8.9387156503        3.3086540561       16.4731783166
  H         8.7690137919        4.1455029835       18.8726289079
  H        10.4014899040        3.1489772001       20.4716066235
  H        11.9623472051        1.3915421330       19.8525930840
  H        12.0312855941        0.6580693213       17.3828600854
  C         9.4247739535        0.7441494323       13.3466002638
  C         8.4320489961        0.0423560822       12.7030746486
  C         7.3296121614       -0.5155795372       13.4436634111
  C         7.3408786819       -0.5055212945       14.8647316205
  C         8.4321691565        0.1195436233       15.5575829726
  C        11.6417053747        1.9278975565       13.2277767889
  C        10.4217919541        1.4891761835       12.5980265604
  C        10.3675156807        1.7851217544       11.1626219973
  C         9.4913377326        2.7475492975       10.5730111049
  C         9.5691838414        3.1130124120        9.2092427232
  C        10.5376158274        2.4426214847        8.3850185620
  C        11.3923372060        1.4904650878        8.9384499489
  C        11.2130556332        1.0701157294       10.2807510707
  H        11.7551790644        0.2341582113       10.7560386820
  H        12.1965782730        0.9809961730        8.3903849445
  H        10.5578915770        2.6070775260        7.3540314509
  H         8.8813200494        3.8811360537        8.9094088437
  H         8.8492811298        3.3974669310       11.1856699707
  C        12.7797622085        2.4296701871       12.5093044022
  C        13.8414722013        2.9898635766       13.1722406423
  H        14.6576332831        3.3246838025       12.5868354784
  H        12.8536504101        2.4137692173       11.4492484760
  C         8.3858897829       -0.0625178018       17.0281095849
  C         9.2388502756       -1.0943354913       17.4789130133
  C         9.2836322366       -1.3683469811       18.8332314213
  C         8.3887770188       -0.8136067547       19.7081913188
  C         7.5323405168        0.1876707092       19.3090682552
  C         7.4738174222        0.5670269233       17.9225208729
  H         6.7021249557        1.1919616073       17.4850473229
  H         6.9148349648        0.7397900510       20.0127300955
  H         8.3797218271       -1.3085238369       20.7187876371
  H        10.0800125981       -2.0279109991       19.1226556153
  H         9.8682766980       -1.6108037213       16.7902630827
  C         6.2703633859       -1.2794999455       15.5634753531
  C         5.3657408355       -2.0309566523       14.9270760828
  C         5.4447549152       -2.1080160150       13.5126842928
  C         6.3968319077       -1.4080619248       12.8035021914
  H         6.4232840796       -1.6106380620       11.7170119556
  H         4.8898449240       -2.8787031244       13.0250275171
  H         4.6815909205       -2.7409082711       15.4353202937
  H         6.1381252737       -1.2793692169       16.6195296358
  C         8.5750305881       -0.3128575554       11.2462870838
  C         9.5526699468       -1.2723892657       10.8269052608
  C         9.5625416090       -1.7183850748        9.4687330534
  C         8.5659438476       -1.3314720468        8.5163759185
  C         7.5757138609       -0.4594816442        8.9651014130
  C         7.6706169751        0.0838522706       10.2929415671
  H         6.8985361815        0.7156847658       10.7381504758
  H         6.8069769737       -0.1445544511        8.3183907158
  H         8.5286144211       -1.7595183430        7.5252471918
  H        10.3980981572       -2.2879170599        9.1127283180
  H        10.3223785288       -1.6674444326       11.4236398741
