140

  C         9.7175125176        7.8258513270        1.2475926274
  C         8.6798072680        8.5366807211        1.9505003738
  C         7.5403497499        8.8986256674        1.2174600415
  C         6.4313501707        9.6192531212        1.8362874443
  C         5.3630097911       10.0200151615        1.1252129477
  C         8.8682591692        8.9103227146        3.4533521466
  C         9.8103789139        9.8264313008        3.7679862877
  C        10.0085204139       10.3597078578        5.0974211502
  C         9.2749965347        9.7867986634        6.0991507691
  C         8.4166681677        8.7159039216        5.8039757122
  C         8.1060303122        8.3498757887        4.5089454444
  H         6.5992528750        9.8119515342        2.8714297196
  H         4.5811655301       10.6186706167        1.6433231951
  H        10.4213094070       10.2066095645        2.9999546765
  H        10.7270689247       11.1524467697        5.1738919198
  H         9.4816683129        9.9875582053        7.1182946913
  H         7.7907569850        8.3611333539        6.6210492058
  H         7.2387416618        7.6433201779        4.3117465831
  C         9.7056651509        7.6348950471       -0.1836158872
  C        10.7408790123        6.9208772265       -0.8131898416
  C        11.8008105630        6.4334438947       -0.0455942630
  C        11.7854272402        6.5193245766        1.4067700625
  C        10.7537916684        7.1870198426        2.0037285677
  C         7.5028358108        8.7674837818       -0.2153972707
  C         8.5989625813        8.1744358489       -0.8630198103
  C         8.5933757445        8.4996826254       -2.3400620308
  C         9.3365900002        9.6678198040       -2.7835426096
  C         9.4217121632       10.0044315045       -4.0920225213
  C         8.7904952286        9.2900722207       -5.1221235459
  C         7.9686608958        8.2483137571       -4.6716638256
  C         7.9282110724        7.8226621276       -3.3045804635
  H         7.3096050511        7.0095985678       -3.1030220821
  H         7.3391058428        7.6410481327       -5.3401785702
  H         8.7804270040        9.7272470884       -6.1370845154
  H         9.9897005770       10.8630017915       -4.4296006437
  H         9.7953528699       10.3919340670       -2.0830403079
  C         6.3903324412        9.2739586436       -0.9627742555
  C         5.3172348204        9.8510411465       -0.3108176743
  H         4.5232377396       10.4032640485       -0.8342896189
  H         6.3546948238        9.2455390624       -2.0220521570
  C        10.5567975410        6.7794249531        3.4961415703
  C         9.7000285572        5.6951176890        3.7402158238
  C         9.5249490433        5.1509446911        5.0275305425
  C        10.3268777191        5.6550945760        6.1180495874
  C        11.2901025155        6.5915075097        5.8435290172
  C        11.3743506008        7.1400036676        4.5967861489
  H        12.0160399465        8.0201772533        4.4022558449
  H        11.8905630277        7.0524792744        6.6467528029
  H        10.1768940149        5.3552083816        7.1576614626
  H         8.7609537052        4.4067562123        5.2954192217
  H         9.1891023853        5.1080906766        2.9610321345
  C        12.8504050883        5.7877604950        2.1282620578
  C        13.9163481012        5.2847899463        1.4607149108
  C        13.9802858629        5.3385567183        0.0119683125
  C        12.9826387236        5.8622010746       -0.6880722531
  H        13.0349202652        5.7999475139       -1.7880239725
  H        14.9698016955        5.1533903249       -0.4679919902
  H        14.6240123553        4.7417653883        2.0500303390
  H        12.7565925128        5.7022377732        3.1991314056
  C        10.6080444485        6.3378337676       -2.2095214057
  C         9.7979093203        5.1996663419       -2.3290268587
  C         9.6095244020        4.6475092040       -3.5978784833
  C        10.2126367985        5.2054945192       -4.7620517733
  C        11.0258100884        6.3183693794       -4.6549394420
  C        11.3138812958        6.8443947603       -3.3515588588
  H        11.8866189441        7.7820388158       -3.1535728148
  H        11.4676157520        6.9369301083       -5.4415483954
  H         9.9854881933        4.8048564428       -5.7164602438
  H         9.0366129077        3.7629269081       -3.7046914249
  H         9.4909922198        4.6442977263       -1.4092254545
  C        16.8259520550        7.6360143728        1.2935584162
  C        15.8570521421        8.4095275576        1.9310266078
  C        14.7710496169        9.0371608277        1.2048520335
  C        13.6408061849        9.7008325761        1.7706774441
  C        12.6752098285       10.2645045328        1.0245568744
  C        15.9092261933        8.7715328408        3.4115870270
  C        16.7005670520        9.8689643469        3.9514589794
  C        16.5535312123       10.3138022073        5.2221710320
  C        15.6594470166        9.6676844595        6.0476556101
  C        14.9527133839        8.5840756394        5.6615363810
  C        14.9836083025        8.1800092973        4.3189533182
  H        13.5827461961        9.8370874480        2.8243808213
  H        11.9214788605       10.9213959767        1.5090844264
  H        17.4109089015       10.3455472628        3.3332674910
  H        17.0917475282       11.1732744896        5.5420887579
  H        15.4753858442        9.9190069869        7.0563149267
  H        14.3365908207        8.1360442868        6.3730435316
  H        14.2397420494        7.5118685669        3.9464728327
  C        16.8819132889        7.6529714760       -0.2175818850
  C        17.9403017476        6.9581212417       -0.8896610900
  C        18.9717396955        6.3610976869       -0.1387251032
  C        18.9286831921        6.4020972904        1.3393584067
  C        17.8947531786        7.0106017843        2.0037283974
  C        14.7677130905        8.8305427829       -0.2279899730
  C        15.8664371320        8.3227934008       -0.9330614693
  C        15.9762973982        8.5984470710       -2.3748704060
  C        16.5482773147        9.7826228395       -2.8814721356
  C        16.5210663093       10.1066498444       -4.2438709181
  C        15.9120606444        9.2531905380       -5.1182653062
  C        15.3012584824        8.0771007443       -4.6928096765
  C        15.2624772030        7.8332751719       -3.3491417047
  H        14.8508160434        6.9223067661       -2.9221634646
  H        14.7533973458        7.3853494865       -5.3149232322
  H        15.8946271506        9.5913303130       -6.1086700437
  H        17.0927217784       10.9937374787       -4.5387864151
  H        17.1129435641       10.3690016185       -2.1850152168
  C        13.6274710842        9.2459010903       -0.9757449948
  C        12.6317472423        9.9686436143       -0.3601466942
  H        11.7890870667       10.3345017620       -0.9268874360
  H        13.6379030213        9.1342009755       -2.0855519289
  C        17.8356421648        6.7411142198        3.5118877566
  C        17.0834744099        5.7104678471        4.0757855044
  C        17.2943782860        5.2223981331        5.3766462970
  C        18.1287732969        5.9034412205        6.2037746937
  C        18.8299049397        6.9725488790        5.6621247706
  C        18.7574640935        7.3816124491        4.3344020655
  H        19.4732655155        8.0783090244        3.9169972230
  H        19.5605781572        7.4774541917        6.2957525883
  H        18.2299893614        5.6902770399        7.2846651291
  H        16.7111887907        4.4008224195        5.7062514070
  H        16.4871648573        5.1196243051        3.3709478946
  C        20.0337573892        5.8023718023        2.0014872268
  C        21.1516624735        5.2361440386        1.3661983360
  C        21.1081228734        5.1668328040       -0.0782232447
  C        20.0893177508        5.7290040915       -0.7406327404
  H        20.1176835571        5.5934399977       -1.8034170304
  H        21.8488091215        4.6277300345       -0.6938182463
  H        22.0073219288        4.9035627703        1.8931194554
  H        20.0148490784        5.8874819779        3.0717071490
  C        17.9265326432        6.5155518490       -2.4065662012
  C        17.2052746439        5.3012521524       -2.6050955814
  C        17.2961049409        4.7058409431       -3.8482026517
  C        18.0383446860        5.2386406828       -4.8925206243
  C        18.7252131641        6.4365570086       -4.6783234124
  C        18.6953938710        7.0365179832       -3.4383881464
  H        19.2893178869        7.9682939501       -3.3074946826
  H        19.2892773601        6.7881336839       -5.4817118754
  H        18.1150912157        4.6622895539       -5.8418165905
  H        16.7906333356        3.8195987297       -4.0658285146
  H        16.5056396435        4.8806627491       -1.8597050992
