140

  C         9.0117218634        7.4140146134        1.2492750657
  C         7.9487867227        8.1075106201        1.8972659436
  C         6.7970659901        8.5706099231        1.2000700888
  C         5.7168479402        9.2933687612        1.8250439162
  C         4.6847802505        9.8023357930        1.0656679053
  C         8.0748239252        8.6517465535        3.3045858166
  C         8.8699836071        9.7536114032        3.7071475761
  C         8.9902281064       10.2619244098        5.0022082915
  C         8.1925972298        9.7493953176        6.0019990363
  C         7.3984431066        8.6186860447        5.6769955210
  C         7.3200194229        8.0712479086        4.3598176977
  H         5.7878387790        9.4260532693        2.8956205495
  H         3.8565348763       10.3315678470        1.5716677954
  H         9.4122031351       10.2832168837        2.9068929693
  H         9.7766127926       10.9889222488        5.1647404564
  H         8.1604056455       10.1312672119        7.0576359054
  H         6.7826736845        8.2970316026        6.4613331311
  H         6.5385762717        7.3074007194        4.1901168958
  C         9.1008379289        7.5223319484       -0.1868979833
  C        10.2211413160        7.0255498315       -0.9023976442
  C        11.3337434645        6.5347516955       -0.1787816463
  C        11.1885886497        6.3715381702        1.2965081378
  C        10.0162540978        6.7616365656        2.0012641366
  C         6.9244685052        8.6731112620       -0.2421895231
  C         8.0727304663        8.2617615965       -0.8836496312
  C         8.3933956176        8.9395459519       -2.2269322418
  C         9.4682078304        9.8422446305       -2.2607583250
  C         9.9764126352       10.5087833121       -3.3800884634
  C         9.2754343315       10.3276057781       -4.6044732015
  C         8.2341851711        9.4112350495       -4.5826480972
  C         7.7711544033        8.6669434019       -3.4543261888
  H         6.9898582320        7.9065565966       -3.5385638629
  H         7.5996300996        9.3235828256       -5.4900898184
  H         9.7498386268       10.7494257624       -5.4415780926
  H        10.8640898221       11.1625852678       -3.2672658858
  H        10.0603734170       10.0669492330       -1.3641212543
  C         5.9731089865        9.4885341010       -0.9134535119
  C         4.8483414263        9.9148008419       -0.3263330578
  H         4.1390960445       10.5292487210       -0.8841766112
  H         6.1704667680        9.6998095992       -1.9170407499
  C         9.9932892702        6.4544893478        3.4726695024
  C         9.2125027674        5.4399238637        4.1561870304
  C         9.3079864577        5.1829349336        5.4729889521
  C        10.2465293779        5.8631607595        6.3425719814
  C        11.1084839727        6.7884830180        5.7040919012
  C        10.8912997932        7.0866819335        4.2983435851
  H        11.5242599054        7.8603396007        3.8980067352
  H        11.8724006338        7.4503551478        6.1560150027
  H        10.3886222804        5.6436236351        7.3800323747
  H         8.7314534886        4.3518299418        5.8780860743
  H         8.5376533010        4.8632744040        3.5285624753
  C        12.3237547550        5.7481800329        1.9661763402
  C        13.3812523145        5.2629066666        1.3219473606
  C        13.5253827702        5.5032065286       -0.0699646524
  C        12.5496161818        6.1913866039       -0.7378939565
  H        12.6714504340        6.2991224693       -1.7764731590
  H        14.5380626414        5.3022339168       -0.5336917739
  H        14.1490220792        4.6952442778        1.8831084812
  H        12.2942799855        5.5245597004        2.9846255353
  C        10.3570577218        6.6743390380       -2.3783931343
  C         9.6004919380        5.4928975945       -2.7742017428
  C         9.6039884958        4.9769981786       -4.0465104153
  C        10.2183918894        5.7432198547       -5.1136461285
  C        10.8804395147        6.8710784627       -4.7495321341
  C        11.0863500549        7.3458193164       -3.4259303077
  H        11.7327985109        8.1548506371       -3.2519058913
  H        11.4413370146        7.5287432104       -5.4896412516
  H        10.2321952103        5.4724625371       -6.1375717029
  H         9.0330876692        4.0547170566       -4.2468232722
  H         8.9907247105        5.0424647877       -2.0111573476
  C        16.6366812551        7.7470112327        1.3420879190
  C        15.5342262877        8.3387263302        2.1439987839
  C        14.4591635296        8.8875571887        1.4609423386
  C        13.3364509473        9.4558168866        2.1475192275
  C        12.2336464931        9.9810273603        1.4531936213
  C        15.6344359351        8.6270624507        3.6035069848
  C        16.3216790866        9.7988591388        3.9705955980
  C        16.1715999624       10.3299736729        5.2903176084
  C        15.3967174561        9.6872847645        6.2516096860
  C        14.6952450051        8.5353421877        5.8540056132
  C        14.8105764994        8.0064160037        4.5842796498
  H        13.3320285651        9.5271497964        3.2570146961
  H        11.3511259960       10.2506276244        1.9424077141
  H        16.8992687749       10.2687613641        3.2187163220
  H        16.6096343198       11.3381053392        5.5604000245
  H        15.3420955626       10.0249101408        7.2714752114
  H        13.9804536679        7.9849164366        6.3767109175
  H        14.3842226292        7.0325905645        4.2843682294
  C        16.6129408917        7.7199978621       -0.1486814233
  C        17.6053396004        7.0451380514       -0.8784299396
  C        18.7091055896        6.4981671685       -0.1359332822
  C        18.8095038681        6.4910980441        1.2967722873
  C        17.7360787911        7.1129921988        2.0009736880
  C        14.5096045627        9.0433231353        0.0073012804
  C        15.5355070438        8.4710397586       -0.7968607217
  C        15.6757194615        8.8945210214       -2.2387675166
  C        16.6932820037        9.8271211569       -2.6536108740
  C        16.7471255937       10.2770397083       -4.0071779119
  C        15.8236039032        9.7841846677       -4.9520965418
  C        14.8059364510        8.9112084338       -4.5357493013
  C        14.7158506575        8.4675097655       -3.2012755413
  H        14.0598117843        7.6398653828       -2.9550791940
  H        14.2016030555        8.4490207921       -5.3161295604
  H        15.9589229631       10.0546614956       -6.0359742879
  H        17.5719148203       11.0103576002       -4.2199364767
  H        17.3063210607       10.2486224387       -1.8305578149
  C        13.4085815939        9.7434147325       -0.6384417571
  C        12.2960246167       10.1508958818        0.0402796959
  H        11.5064973517       10.7759337370       -0.3807465200
  H        13.4023647744       10.0059848101       -1.6691993937
  C        17.6271348292        6.6317670819        3.4433016162
  C        17.0093742940        5.4014932625        3.6569957331
  C        17.0710088299        4.7614591346        4.9158990044
  C        17.7554444281        5.3857204285        5.9720773484
  C        18.3860530603        6.6667199751        5.7426498757
  C        18.3124444336        7.2876745578        4.5056499829
  H        18.7653542166        8.2394489353        4.3119299833
  H        18.9271594775        7.0522457750        6.5976396632
  H        17.8196562134        4.9561188073        6.9547530719
  H        16.3606298494        3.9623797116        4.9850504515
  H        16.5929256141        4.9312880141        2.7766869161
  C        19.8306854469        5.7806242605        1.9390434539
  C        20.8393932379        5.2003249707        1.2066076248
  C        20.8357070453        5.2980850194       -0.1937320796
  C        19.7565649126        5.8451883349       -0.8414979290
  H        19.7644624016        5.8487008334       -1.9200345613
  H        21.6347486059        4.8451553165       -0.7818652177
  H        21.7038591909        4.5784103191        1.5872433537
  H        19.7252457863        5.6599674888        3.0073398221
  C        17.4685872525        6.5232732279       -2.2858458881
  C        16.6317922261        5.4556779450       -2.5524323369
  C        16.4066429018        4.9990062306       -3.9016869798
  C        17.0608998507        5.6357652120       -4.9898115830
  C        18.0203492839        6.5737200251       -4.6537903029
  C        18.1554402705        7.0583649948       -3.3601942850
  H        18.7106940199        8.0044680152       -3.3204699811
  H        18.6960641979        7.0715337308       -5.4195499416
  H        16.8174343618        5.3356793971       -6.0215689066
  H        15.5679145953        4.2949438605       -4.0012479012
  H        16.0311113464        4.9612144713       -1.8272469087
