140

  C         8.9929575482        7.8294105860        1.4982301411
  C         7.9200032601        8.4596402532        2.1348317270
  C         6.9311770785        9.1071016234        1.3691840438
  C         5.7954338938        9.7744569487        1.8935979685
  C         4.8195889074       10.4322689435        1.1776468507
  C         7.8936376286        8.9846597699        3.5688018880
  C         8.7429151268       10.0453034065        3.9636862932
  C         8.5721852822       10.7250442809        5.1607882451
  C         7.5709750477       10.2710086461        6.0804379335
  C         6.9298788008        9.0620060608        5.8126192811
  C         6.9572542436        8.5096045160        4.5225865378
  H         5.7355899228        9.9050103065        2.9235921649
  H         4.0059098325       10.8343124444        1.7179296841
  H         9.3981315595       10.4287611603        3.2179391955
  H         9.2830728269       11.5392476835        5.3842828666
  H         7.6115232709       10.7502903335        7.0654612258
  H         6.2214731836        8.6277884424        6.5442856476
  H         6.4291694812        7.6321010570        4.2987702054
  C         9.1324936581        7.8623175257        0.0057285171
  C        10.1999472556        7.2062832181       -0.6773865381
  C        11.2656666762        6.6604611057        0.1304574895
  C        11.1687574775        6.7037233875        1.5913469181
  C        10.0522949415        7.1831875431        2.2544619601
  C         7.1113313452        9.2004473374       -0.0791174294
  C         8.2469824471        8.7004572422       -0.7135407353
  C         8.4322756204        9.1201990550       -2.1543478887
  C         9.3492880557       10.1682313380       -2.4256995605
  C         9.3546374505       10.7359193994       -3.6911912428
  C         8.6022037589       10.2608210195       -4.6850868716
  C         7.6359360504        9.3254486236       -4.4077790541
  C         7.5708591533        8.7728183343       -3.1226099167
  H         6.8209728284        7.9967267097       -3.0163662836
  H         6.8528765974        9.1578716427       -5.1435167977
  H         8.6566706454       10.8509251335       -5.5758281814
  H         9.9729011446       11.6049581962       -3.8254484209
  H         9.9412067934       10.5298508712       -1.5873374215
  C         6.2086695233       10.0340032984       -0.8180054613
  C         5.0845896248       10.5980578958       -0.2017988452
  H         4.3902398035       11.1260429306       -0.8628650712
  H         6.3303075641       10.2421081516       -1.8529104303
  C         9.8753584982        6.8135188210        3.7031575733
  C         9.0091508008        5.7885257392        4.0873685592
  C         8.8299896043        5.5377362072        5.4700153148
  C         9.6178769079        6.2359545093        6.4073318019
  C        10.6492782909        7.0645502199        5.9367830690
  C        10.7700575822        7.3524285908        4.6111581388
  H        11.4971105674        8.0854907442        4.1950157719
  H        11.4168039624        7.2880893904        6.6726543901
  H         9.3048353578        6.0346163319        7.4276945269
  H         7.9745857074        4.8805465967        5.7920005784
  H         8.5528372910        5.2366261671        3.2859668541
  C        12.2547878405        6.0903245941        2.3649655384
  C        13.3490481157        5.5392428028        1.7636004804
  C        13.3845976783        5.4866527617        0.3527195742
  C        12.4682197473        6.0753067710       -0.4235332787
  H        12.5496608031        6.0114347642       -1.5363421982
  H        14.2355350208        4.9782903036       -0.2257725707
  H        14.1711857454        5.0068007415        2.2313561869
  H        12.0954935335        5.8906422353        3.4276433623
  C        10.0808790660        6.8956437670       -2.1161185756
  C         9.0595316269        6.0189753112       -2.4275985225
  C         8.8163359678        5.5880163195       -3.7222564710
  C         9.6451343546        5.9930382441       -4.7917464453
  C        10.6835499354        6.8884178744       -4.5526493958
  C        10.8351875036        7.3037003423       -3.2355484778
  H        11.5477657864        8.0826101157       -2.9785392851
  H        11.3512620208        7.2567294287       -5.3371909463
  H         9.4415420224        5.6479212183       -5.8395449596
  H         7.9504915066        4.9888857328       -3.9216960726
  H         8.4442722438        5.5513748265       -1.6630193986
  C        16.1570719537        8.0468490730        1.4782730109
  C        15.1484520035        8.6982255484        2.2817148823
  C        14.0063459320        9.2387858343        1.7219945287
  C        12.9978497263        9.9057736852        2.5720775160
  C        11.9037528599       10.4719759508        1.9732733616
  C        15.3355375094        9.1035299831        3.7528879105
  C        15.8382897803       10.4176087422        4.0311097963
  C        15.6885457220       10.9462543520        5.3049768711
  C        14.8860378617       10.2864841423        6.2488070449
  C        14.4414846876        8.9869522209        5.9976101760
  C        14.5997672368        8.4200226037        4.7341161152
  H        13.1496466101        9.9751002158        3.6643446589
  H        11.2558224135       11.1720729207        2.5128474706
  H        16.3233564519       10.9729435687        3.2252077244
  H        16.0138101221       11.9505200065        5.3518025640
  H        14.6434956149       10.6684264272        7.2214264286
  H        13.7516200269        8.6145907085        6.7705206628
  H        14.0870008877        7.4921995654        4.5375304690
  C        15.9965616191        7.9744139370        0.0220166886
  C        17.0926563370        7.3995343049       -0.7528089516
  C        18.2322352703        6.8750687527       -0.0632497364
  C        18.3382453910        6.8117551694        1.3844488018
  C        17.2765257768        7.3191021862        2.1391209725
  C        13.8403120144        9.2618728958        0.2714917508
  C        14.8285304528        8.6755497933       -0.5680645438
  C        14.8254357243        9.0471117233       -2.0152956559
  C        15.4751357089       10.2257491420       -2.4680991768
  C        15.5845943643       10.4698166843       -3.8165629379
  C        14.9396698689        9.6506493261       -4.7635584561
  C        14.2205206451        8.5441869868       -4.3209484011
  C        14.1586364447        8.2287962088       -2.9637281127
  H        13.5424177228        7.3541484098       -2.6425184198
  H        13.6393701442        7.9574626100       -5.0222141339
  H        15.0531311958        9.8704915341       -5.8140557743
  H        16.1793070375       11.3495042620       -4.1293902334
  H        15.8993256135       10.8932369018       -1.7316937124
  C        12.6812854277        9.9166498762       -0.2646040262
  C        11.7550895726       10.5717123687        0.5582993921
  H        10.9179468658       11.0862865173        0.1262145292
  H        12.5699934467        9.9564845647       -1.3182047555
  C        17.1816532774        7.0260618700        3.5905766085
  C        16.6074576084        5.8459875785        3.9892237704
  C        16.5683500985        5.4481514289        5.3748554734
  C        17.1697709056        6.3188757579        6.3476042854
  C        17.7612817874        7.5724847764        5.9066224542
  C        17.7640637909        7.9106106507        4.5516622853
  H        18.1228950463        8.8842459759        4.2901091879
  H        18.4212496261        8.0874417295        6.6065502825
  H        17.1770822061        5.9481516843        7.3469091584
  H        16.1170408228        4.4768215471        5.6208761712
  H        16.2000567452        5.2259707986        3.2219529300
  C        19.5492471174        6.3093201718        1.9866269062
  C        20.4581791734        5.7632423886        1.1614308831
  C        20.3191544733        5.6588594340       -0.2692363529
  C        19.2029115508        6.1638635457       -0.8427408432
  H        19.1737997797        6.1716891024       -1.9534924218
  H        21.0274555367        5.0156722108       -0.7176929950
  H        21.4005452156        5.4903435477        1.5808236753
  H        19.7642194265        6.4119699737        3.0658598419
  C        16.9063044184        7.0891861683       -2.2546898486
  C        16.1915134505        5.9230948143       -2.5891721881
  C        16.1221582920        5.4405515919       -3.9247125108
  C        16.8327948317        6.0955998060       -4.9610844473
  C        17.5314910884        7.2720380654       -4.6111542190
  C        17.6400782930        7.7108705360       -3.2187141165
  H        18.2759624944        8.6395456331       -3.0031380232
  H        18.0973654982        7.8221708433       -5.3643828007
  H        17.0066620968        5.6568857074       -5.9166221243
  H        15.5660602860        4.5687928345       -4.1599065108
  H        15.7301037407        5.4438237432       -1.7641988419
