140

  C         3.3491285435       -0.0288495110       14.6603804194
  C         4.4484262252        0.5708536282       15.3888999686
  C         5.5009698961        1.2012090498       14.7834082756
  C         6.4931840748        2.0001516171       15.4793518896
  C         7.4133558434        2.6476545586       14.7842413915
  C         4.2972143843        0.9611774218       16.8450502089
  C         3.7811006817        2.2080862355       17.2127965466
  C         3.8598607847        2.6726707334       18.5343870486
  C         4.4564896804        1.8230017210       19.4767865670
  C         5.0240244078        0.5849534085       19.1044185095
  C         5.0657371509        0.2086580600       17.7731495607
  H         6.5762434340        1.9480631291       16.5240898417
  H         8.1810648645        3.1396828568       15.3593440199
  H         3.3384386098        2.7659906044       16.4166096493
  H         3.2764287365        3.5306343586       18.8907867675
  H         4.4090018633        2.0267135263       20.5655556964
  H         5.4818399522       -0.0251374265       19.8405868469
  H         5.4718849735       -0.7467428107       17.3994691419
  C         3.3019373677        0.1188746210       13.1369844172
  C         2.1977273800       -0.3842987037       12.3806464564
  C         1.0892170635       -0.9029232114       13.0576972633
  C         1.0990033923       -1.0018950041       14.4677966791
  C         2.1621975473       -0.5584293368       15.2314893868
  C         5.5060318955        1.3011754416       13.2669165379
  C         4.4073664520        0.7960569176       12.5656912799
  C         4.3350693313        1.2684347318       11.1507952225
  C         3.4434017023        2.3751034674       10.9553620564
  C         3.2967398107        3.0688414057        9.7445112545
  C         3.9073495769        2.5850212023        8.5963205168
  C         4.7546668461        1.5056704230        8.7868057985
  C         4.9909997120        0.8323798996       10.0031952608
  H         5.5809089393       -0.0635909678       10.1314098020
  H         5.1672685966        1.0802290537        7.8699934377
  H         3.7000441712        2.9782049132        7.5816511466
  H         2.6983398271        3.9762999148        9.7097301603
  H         3.0386788241        2.8660281957       11.8347831308
  C         6.5955674055        1.9008123955       12.6476193247
  C         7.5012157115        2.6693953126       13.3646658486
  H         8.2856462470        3.2297870332       12.8479379441
  H         6.5518698904        2.0418925586       11.5824905158
  C         2.2779397589       -0.9213572437       16.6840552440
  C         2.9353220820       -2.1443291028       16.9977713146
  C         2.9279476419       -2.6518875878       18.2999902528
  C         2.1784299137       -2.0217983645       19.3041115471
  C         1.5350382004       -0.7745960959       19.0279849715
  C         1.6400993972       -0.2693146199       17.7689904522
  H         1.0514938544        0.6376750231       17.5896284509
  H         0.7889948767       -0.3313877855       19.6581579971
  H         2.0137126707       -2.5328265558       20.3361687744
  H         3.4708518802       -3.6136073047       18.5415096634
  H         3.5087383227       -2.7099120220       16.2288407731
  C         0.0137204658       -1.6598982669       15.0926695672
  C        -1.1031230215       -2.0762658960       14.4577696729
  C        -1.1552829216       -2.0081006333       13.0479432548
  C        -0.1057481773       -1.3939579762       12.3787744115
  H        -0.2069192124       -1.2390002011       11.3130448785
  H        -2.0692425492       -2.2359820012       12.4801200579
  H        -1.7930309245       -2.6200100334       15.0850460795
  H         0.0975550005       -1.7665172303       16.1700011296
  C         2.1691876985       -0.6737223318       10.9536618402
  C         2.9345412174       -1.8368938759       10.6804625197
  C         2.9445541519       -2.3889053814        9.4341971499
  C         2.1603540752       -1.8659748875        8.3956904235
  C         1.3399107724       -0.8244643637        8.6496474230
  C         1.3598592798       -0.1795041161        9.9383173497
  H         0.6493514694        0.6690366833       10.0846428665
  H         0.5965211997       -0.4325573047        7.9032178095
  H         2.2945643279       -2.2228536072        7.3927854538
  H         3.5589353811       -3.1847404031        9.2372553220
  H         3.4108194758       -2.3823795181       11.5167576986
  C        10.7088455910        0.2376564553       14.5881812579
  C        11.7386395141        1.0252415858       15.2504590311
  C        12.7918825979        1.5091944581       14.5203776015
  C        13.8840593144        2.1258426353       15.2135422800
  C        15.0123837626        2.5158357534       14.4998979005
  C        11.6462717991        1.3267508974       16.6755220981
  C        10.8280776102        2.3527324498       17.1161668869
  C        10.7899889046        2.6449962841       18.5337362493
  C        11.6732731813        2.0128005919       19.4126700927
  C        12.6003889861        1.0625440890       18.9184736583
  C        12.5107104299        0.6805438832       17.5796989992
  H        13.9684507729        2.1440152071       16.3234194006
  H        15.9165507076        2.8720513672       15.0463873773
  H        10.1999140370        2.9382205853       16.4615194030
  H         9.9383043314        3.1666357543       18.9549577161
  H        11.7464889602        2.2584338675       20.4327609038
  H        13.3821709255        0.7477935736       19.5813321108
  H        13.0973215589       -0.0885523342       17.0684273099
  C        10.6540780298        0.2639085475       13.1287145800
  C         9.6432892034       -0.5080927815       12.5246873669
  C         8.5601009528       -0.9937180067       13.2554200060
  C         8.6064538395       -1.0840836200       14.6478034862
  C         9.7314846939       -0.4707068465       15.3174522151
  C        12.8351796025        1.3884684440       13.0423884941
  C        11.7317347013        0.9477811665       12.3518154162
  C        11.6209122611        1.2131399255       10.9246505778
  C        10.9584565929        2.3989245754       10.5973705045
  C        10.7690196684        2.6911628900        9.2132258073
  C        11.4201749693        1.9926080083        8.1818410271
  C        12.3108741899        1.0028359918        8.6129309866
  C        12.3446510714        0.5337027197        9.9082640713
  H        12.9166467931       -0.3144156216       10.1640102217
  H        12.9541595945        0.4155787319        7.9548239918
  H        11.3276867658        2.1766171595        7.1200847252
  H        10.1876793865        3.6317318568        8.9246502411
  H        10.5414877089        3.0941125023       11.3491814553
  C        13.9969507640        1.8887147885       12.3700296009
  C        15.0651293156        2.3667747244       13.0723953435
  H        15.9589464668        2.6709831366       12.5288286053
  H        13.9858763439        1.7981009416       11.2980226832
  C         9.8127467069       -0.7726012025       16.8109544493
  C        10.7298607738       -1.6445731352       17.2968373760
  C        10.5418676515       -2.3193485612       18.5168419803
  C         9.5053543983       -1.9785620177       19.3817077267
  C         8.6719973795       -0.9348436697       18.9851966521
  C         8.7079812144       -0.3945980474       17.6660418705
  H         8.0214038309        0.2762770742       17.1761895422
  H         7.9860534700       -0.5730492904       19.8001780478
  H         9.3643294491       -2.5143726744       20.3258915319
  H        11.2760437555       -3.0722999635       18.7170055836
  H        11.5459199067       -1.9230920628       16.6545510587
  C         7.5635434260       -1.8388571704       15.2892444953
  C         6.4474059293       -2.3832121316       14.6803837884
  C         6.4495173191       -2.2550818393       13.2423522063
  C         7.4344346355       -1.6323952185       12.5943849364
  H         7.3115292053       -1.6308118869       11.4957168952
  H         5.5085568142       -2.6424958595       12.7177071025
  H         5.6757168027       -2.8615149365       15.2130857087
  H         7.5731102959       -1.8869068250       16.3805977567
  C         9.5663519680       -0.6844506119       11.0731155912
  C        10.2094593942       -1.7748150290       10.4150765670
  C         9.9935136194       -2.0840748160        9.0641062068
  C         8.9899107537       -1.3444743359        8.3544671306
  C         8.4054393455       -0.1960467067        8.9360759893
  C         8.6898749667        0.1098024361       10.2640432605
  H         8.3569419907        1.0520542647       10.5985806122
  H         7.6619110924        0.4377718505        8.4776896375
  H         8.7744187430       -1.5188607952        7.3172971639
  H        10.5174739797       -2.9572049073        8.6874095816
  H        10.8885270634       -2.4097006281       11.0001879841
