140

  C        11.2819457197        6.1638233315        0.3611875752
  C        10.2603056270        6.8781957538        1.0470430296
  C         9.1495540790        7.3762953152        0.3528849990
  C         7.9662370626        7.8921606221        1.0167271735
  C         7.0517942461        8.6915378609        0.3465112959
  C        10.3809707563        7.3730913366        2.4527749783
  C        11.2228782802        8.5248819642        2.7603043481
  C        11.2761920496        9.0399201544        4.0144593706
  C        10.6262100444        8.4573423652        5.0969063423
  C         9.7777667655        7.3399713282        4.8283911699
  C         9.5913821072        6.8788462099        3.5429846629
  H         7.9222830865        7.7638494872        2.0932855663
  H         6.1869205882        8.9827520635        0.9264859845
  H        11.8243942571        8.9051250516        1.9142899765
  H        11.8938853174        9.9163317560        4.1610178174
  H        10.6711403740        8.8527382780        6.0930028965
  H         9.2622238852        6.7541147232        5.6900279042
  H         8.9408941216        6.1817602887        3.1464642015
  C        11.2574727139        6.1321902830       -1.1315605600
  C        12.3555490065        5.5059873784       -1.8198062876
  C        13.4881639948        5.0460313552       -1.0526787628
  C        13.4557775219        4.9955380904        0.3974012716
  C        12.3361667581        5.5540147305        1.0923483712
  C         9.1555642635        7.4104870081       -1.0977876551
  C        10.2197359963        6.8289729981       -1.8328193947
  C        10.3706073962        7.1462036537       -3.3073051478
  C        11.3032196696        8.1013968701       -3.8220134174
  C        11.3483747974        8.4066555943       -5.1352558138
  C        10.3562821206        7.9290944543       -6.0362382049
  C         9.4672242064        7.0012175867       -5.5893468690
  C         9.5013050745        6.6018723592       -4.2603889010
  H         8.8511517319        5.9118900717       -3.7869005277
  H         8.6937814687        6.5290722301       -6.1741269139
  H        10.2914403734        8.1099666239       -7.0583890797
  H        12.0645743722        9.1207667165       -5.5335228905
  H        12.0597290815        8.5339948438       -3.1429227992
  C         8.1050972646        8.1240772135       -1.7699465094
  C         7.1449416900        8.8094270175       -1.0828983175
  H         6.4775682877        9.5038754539       -1.6105411015
  H         8.2039439240        8.2823886412       -2.8073971625
  C        12.2755051316        5.3010352433        2.5114299578
  C        11.2436758568        4.5064881702        3.0490833794
  C        11.3976201043        4.0129412970        4.3647484916
  C        12.3030611928        4.5505582589        5.2478709764
  C        13.0844852511        5.6214179383        4.8014702196
  C        13.2057794411        5.8746195328        3.4057931573
  H        13.9341119140        6.5932107270        3.0294270653
  H        13.8384797447        6.0880156994        5.4807078477
  H        12.4652992443        4.3606796599        6.2882533929
  H        10.6492535556        3.3043592843        4.8035829108
  H        10.3371594066        4.1241874462        2.4856766058
  C        14.6358808801        4.4077481405        1.0822979536
  C        15.6375144479        3.8457289830        0.4006853639
  C        15.6570318698        3.8792186247       -1.0290506164
  C        14.6177529458        4.4790457457       -1.7035243903
  H        14.5835566913        4.3752254604       -2.7640793232
  H        16.5079544131        3.5216227396       -1.6261620284
  H        16.4868395800        3.3865616343        0.9619142981
  H        14.4948107343        4.3783034034        2.1643273792
  C        12.3481204066        5.1305190268       -3.2756626994
  C        11.4040248620        4.1987253881       -3.7607108374
  C        11.4687982014        3.7392553663       -5.1345322490
  C        12.4074639605        4.3039445811       -5.9552961726
  C        13.3357509438        5.2964583848       -5.4867537300
  C        13.2840602232        5.7324820165       -4.1387129969
  H        13.8608811191        6.5074275627       -3.8381081413
  H        14.1644530425        5.6453079114       -6.1187764076
  H        12.4678927372        4.1178308911       -7.0175685424
  H        10.7636388842        3.0854620870       -5.5547827067
  H        10.5271108040        3.8133328620       -3.1546771793
  C        18.6839173702        6.2797003373        0.5772698046
  C        17.6597883503        6.9530832114        1.3019694938
  C        16.6409716395        7.5166092166        0.5228400102
  C        15.5855584861        8.2388981219        1.1898209147
  C        14.5224390033        8.8952033854        0.5358330215
  C        17.7151013835        7.2262755935        2.8076261535
  C        18.5521926070        8.3210452671        3.1569356996
  C        18.5002697982        8.8292261957        4.4574117420
  C        17.7373060816        8.1356739467        5.4784334597
  C        16.8950265406        7.0467836650        5.0823525934
  C        16.8468781971        6.6217357325        3.7707386807
  H        15.5224051590        8.1169054778        2.2802615461
  H        13.6761634301        9.3150083049        1.1050021780
  H        19.2143841439        8.7930462423        2.4231553119
  H        19.0814898969        9.7163863675        4.6994723388
  H        17.9173102531        8.4844222980        6.4730428716
  H        16.2140029619        6.5078208660        5.7563681987
  H        16.1474091706        5.8588931248        3.4675119590
  C        18.6638480832        6.3091507465       -0.9250615857
  C        19.6517193154        5.5385882860       -1.6569913387
  C        20.7260689424        4.9257320263       -0.9578331291
  C        20.7284430668        4.7952020914        0.5263234434
  C        19.6819423672        5.4875504116        1.2284067926
  C        16.7489960729        7.7507227448       -0.8991571369
  C        17.7423022550        7.1174161692       -1.6410937638
  C        17.8447462805        7.4035767816       -3.1367402408
  C        18.5937189241        8.4636582279       -3.6283900767
  C        18.3690652805        8.8705819512       -4.9589069729
  C        17.5311140542        8.1349062869       -5.8106590152
  C        16.8439940343        7.0196672325       -5.2889116956
  C        16.9425401716        6.7273112656       -3.9232693253
  H        16.4385672685        5.8563793593       -3.4947452684
  H        16.2562460146        6.4762335388       -5.9951452686
  H        17.3449473393        8.5292877251       -6.7892820146
  H        18.9050986141        9.7214788072       -5.4038171758
  H        19.2148133560        9.0578204731       -2.9150644616
  C        15.6781373126        8.4452743322       -1.5529920998
  C        14.6027996673        8.9746916803       -0.8918531882
  H        13.7794883323        9.5381095798       -1.3840910686
  H        15.8898614688        8.6744738270       -2.5990293712
  C        19.6484067538        5.2218176336        2.7027518953
  C        18.9356539737        4.0484504822        3.0519824953
  C        18.7280324541        3.5867810734        4.3278836654
  C        19.2991449941        4.3347171907        5.3455634182
  C        20.1131804476        5.3987342380        5.0508503385
  C        20.2170365806        5.8907518820        3.7245932443
  H        20.8049270785        6.7764788748        3.4946056998
  H        20.5741557104        6.0458737251        5.7272544920
  H        19.3493669368        4.0057618702        6.4278682766
  H        18.1168255242        2.6958243978        4.3941260898
  H        18.4046753831        3.6450284350        2.1786769726
  C        21.7663708725        4.1095447286        1.1956367030
  C        22.8116012015        3.5733376721        0.4748052502
  C        22.8800255768        3.7301797574       -0.9329638884
  C        21.8360354233        4.3675923813       -1.6000522284
  H        21.8900645153        4.4515140163       -2.7141470096
  H        23.7619110940        3.4160531198       -1.4608207070
  H        23.6968781163        3.1561895541        0.9751638999
  H        21.7385340663        4.0895475375        2.2951763765
  C        19.6620915219        5.2561718529       -3.1888914282
  C        19.0185988366        4.1099328162       -3.5522146106
  C        19.0455818417        3.7232937490       -4.9411015059
  C        19.9502551071        4.3585701179       -5.7969170503
  C        20.7605279510        5.3714819137       -5.3507049857
  C        20.5719022476        5.9055105290       -4.0331571610
  H        21.0935032217        6.7730643136       -3.6996721085
  H        21.5160920818        5.8262403942       -5.9505949729
  H        19.9952426995        3.9176951023       -6.8286995850
  H        18.4455155321        2.8394107676       -5.1853237801
  H        18.4496765820        3.4450186178       -2.8682856445
