140

  C        11.9729527104        7.0510461438        2.5001358844
  C        10.9183972847        7.7883797358        3.1714944790
  C         9.9413361200        8.5125297159        2.3838346985
  C         8.8690440514        9.2508129229        2.9972234719
  C         7.8821618781        9.9068748674        2.2998392863
  C        10.9493282803        8.1091796270        4.6072071059
  C        11.8198675585        9.0525322970        5.0712978796
  C        11.7735812117        9.5980476534        6.3450832990
  C        10.8177006715        9.0314330112        7.1755808192
  C         9.9305840031        8.0233592350        6.7691171546
  C         9.9860342846        7.5310841203        5.4523247004
  H         8.9226804032        9.6025916865        4.0756009176
  H         7.0706234862       10.4343925890        2.7913554330
  H        12.5435931613        9.4890818737        4.3501882707
  H        12.4162228053       10.4138087383        6.6444476893
  H        10.7182263772        9.5021854019        8.1089743735
  H         9.2428447373        7.6162568284        7.4732965293
  H         9.2717698941        6.8223337723        5.0843974232
  C        12.0161304185        7.0371290777        0.9864736903
  C        13.1780314127        6.3908464939        0.3833375681
  C        14.1931835702        5.8256192342        1.1332152754
  C        14.0514915474        5.7442213184        2.5859161254
  C        12.9839310690        6.3364523148        3.2217417641
  C         9.9297271244        8.3843902092        0.9323634211
  C        10.9531001787        7.7103541568        0.2930547490
  C        10.9690694972        8.0454799379       -1.1941471829
  C        11.5659207331        9.2437637432       -1.5052388507
  C        11.6490171770        9.6625631476       -2.8119547674
  C        10.9824765874        8.9667302420       -3.8337064183
  C        10.2602199439        7.8136089994       -3.4759043193
  C        10.2119496835        7.3677013488       -2.1461065950
  H         9.7313457306        6.4123834617       -1.8633972145
  H         9.6996561022        7.3122043366       -4.2203301677
  H        10.7833040015        9.4312498646       -4.8115655925
  H        12.2210649986       10.5736063515       -2.8977787454
  H        12.0818082022        9.8915528364       -0.7716445186
  C         8.9218584447        9.1311236240        0.2001964109
  C         7.9030328060        9.7885925113        0.8745462304
  H         7.2340946090       10.3217760497        0.1941663837
  H         8.9036463437        9.1494290529       -0.8522386008
  C        12.9784979607        6.1135065084        4.7221952042
  C        12.1148638355        5.0558359125        5.0912018599
  C        12.1574290421        4.4842408080        6.3855292539
  C        12.9881683629        5.0188251150        7.3255113906
  C        13.7576995511        6.1644417718        7.0407454976
  C        13.7551285062        6.6889988486        5.7749804727
  H        14.3213601036        7.5870827600        5.5053920175
  H        14.5905202553        6.4907941261        7.7239919752
  H        13.0006766520        4.5442141826        8.2877112443
  H        11.4801077061        3.6147005713        6.6189100795
  H        11.4619144091        4.5430265227        4.3722973331
  C        15.0511536417        5.0458201765        3.2223554660
  C        16.1706896148        4.5667611581        2.6079985746
  C        16.3792102086        4.7081534959        1.2089221820
  C        15.3611579296        5.3080515192        0.5091627120
  H        15.4651047594        5.5074490120       -0.5737089539
  H        17.0865409942        4.0793422949        0.7075727680
  H        16.9946900433        4.0707310796        3.1372369891
  H        14.8049961752        4.8284200995        4.2593162058
  C        13.2605370853        6.1983445577       -1.0847455986
  C        12.5534067451        5.1434060407       -1.5479225962
  C        12.5288060593        4.8015340540       -2.8994987500
  C        13.1552866059        5.6712232622       -3.7634980739
  C        13.8379299749        6.8104487782       -3.3267585347
  C        13.7892381294        7.1524836797       -1.9698380752
  H        14.2654835415        8.0029310828       -1.5306309568
  H        14.4031780471        7.4093504371       -4.0751087204
  H        13.0697155036        5.5394217517       -4.8703901939
  H        12.0649921608        3.8967764147       -3.3750583425
  H        11.9686399750        4.5101761113       -0.8703528758
  C        19.2127574565        6.9975739541        2.2621081640
  C        18.0851175310        7.5264315890        2.9120747219
  C        17.0231582720        8.1447412585        2.1907172647
  C        15.8724570618        8.7697577822        2.7922125815
  C        14.9038754500        9.3935216167        2.0255113170
  C        18.1512062057        7.9728028931        4.3725437905
  C        18.7006249919        9.2385660297        4.5944498979
  C        18.7337280290        9.8499911828        5.8761265849
  C        17.9562003496        9.2679397743        6.8754327860
  C        17.2762955454        8.0693321001        6.5907617065
  C        17.4092198537        7.4019489584        5.3616637469
  H        15.7927261330        8.7095705418        3.8832919221
  H        14.0381325049        9.7784032895        2.4982433367
  H        19.1962081353        9.6108154268        3.7093296294
  H        19.1472667112       10.8604649596        6.0702787536
  H        17.8712612980        9.5915255873        7.9030992988
  H        16.5347645409        7.6325337988        7.2096703900
  H        16.8837778487        6.4262260040        5.2055235968
  C        19.1630732342        6.9561165072        0.7828093464
  C        20.0946928636        6.1251999860        0.0096681006
  C        21.3054845294        5.7351575919        0.7205800084
  C        21.4159806662        5.7935933531        2.1686075712
  C        20.3371631250        6.3267165741        2.8965648375
  C        17.0904381320        8.2191343902        0.6812869497
  C        18.1728219490        7.6340834077        0.0423145568
  C        18.3826751842        8.0215920705       -1.4363563155
  C        19.3792746067        8.9965621150       -1.7488411410
  C        19.4214251584        9.6192375351       -3.0030001587
  C        18.4507596707        9.2170165398       -3.9594634289
  C        17.5747631177        8.1645779921       -3.7053391526
  C        17.5957316979        7.4871883074       -2.4803935254
  H        16.9045272474        6.5901434459       -2.3270693088
  H        16.8181792950        7.9207219182       -4.4442190562
  H        18.4896117546        9.5367895225       -4.9675017426
  H        20.0367254075       10.5190529871       -3.2213940432
  H        19.9428878352        9.3996314175       -0.8950753458
  C        16.0702265901        8.9956600144       -0.0392486378
  C        15.0028469801        9.5395540387        0.6504419246
  H        14.1682577725        9.9037542925        0.0954392464
  H        16.2050723083        9.1011999906       -1.1285586232
  C        20.3629542588        5.9994197677        4.3296581139
  C        19.5776718633        4.9925528986        4.9100467653
  C        19.6506825051        4.5973769919        6.2448503433
  C        20.3179033367        5.3956877522        7.1527870030
  C        21.0025442404        6.5582552168        6.6916032478
  C        21.0695779752        6.7706301669        5.2613142132
  H        21.6615056986        7.5841965886        4.7999940737
  H        21.5958658548        7.1226982749        7.3994858736
  H        20.1845704482        5.2316002386        8.2250686915
  H        19.0282086398        3.7204004181        6.4154007343
  H        18.9256817348        4.4014329577        4.2713775612
  C        22.5158268503        5.1798117948        2.7754226746
  C        23.6091988964        4.6991269634        2.0932161464
  C        23.4814906240        4.5197105614        0.6479579607
  C        22.3787024858        4.9884968553        0.0379283499
  H        22.1141850979        4.8790351293       -1.0097336087
  H        24.2290362121        3.8882775974        0.1521828922
  H        24.5364539721        4.5182327889        2.6054322270
  H        22.5818754758        5.4037312577        3.8318917199
  C        20.0417552194        5.7885334732       -1.4275321508
  C        19.1869149987        4.7584701521       -1.8552454434
  C        19.1993411407        4.3864967081       -3.2136838539
  C        20.2391295388        4.8436221675       -4.0845900754
  C        21.0947798549        5.8619320541       -3.6958923262
  C        20.9810682222        6.3980361686       -2.3650271089
  H        21.5971493470        7.2035659558       -1.9838572985
  H        21.8120595189        6.2916817089       -4.3956316518
  H        20.2857650796        4.4898773025       -5.1259618669
  H        18.5066001301        3.7177747596       -3.6603646903
  H        18.4222415103        4.2775401871       -1.2779682921
