140

  C         5.0641617489       -1.3063387317       13.7967429005
  C         6.1456719074       -0.6576857610       14.4507585640
  C         7.2352771941       -0.1312026639       13.7576764933
  C         8.3409270050        0.6072811299       14.3706531360
  C         9.3173425506        1.3009841179       13.6768090679
  C         6.1562995145       -0.4372412834       15.9207059870
  C         5.2995508717        0.5648592330       16.4722657812
  C         5.5163112161        0.9353901599       17.8026634622
  C         6.4975087552        0.3353189567       18.6024114145
  C         7.3954014066       -0.5742790186       18.0548465416
  C         7.2500838562       -0.8891252133       16.7180883529
  H         8.4148393828        0.5386349821       15.4713217313
  H        10.1063825688        1.7785567091       14.2853710167
  H         4.5056991050        0.9060622900       15.9039220041
  H         4.8570123465        1.7023400354       18.2927425493
  H         6.5026490757        0.6661936831       19.6173844811
  H         8.2888506519       -0.9031630002       18.6662735838
  H         7.8504473662       -1.5916010832       16.1391819734
  C         5.0283974983       -1.2390419325       12.3402430190
  C         4.0130066260       -1.8824265517       11.6235268664
  C         2.8528988121       -2.4078596818       12.2692231023
  C         2.9339230792       -2.5024290111       13.7146508706
  C         4.0498663402       -2.0074851679       14.4484847157
  C         7.1879357360       -0.0474743664       12.2792252314
  C         6.0643087756       -0.5370941883       11.6431874186
  C         5.8813138315       -0.1427996351       10.2086901772
  C         5.1700178626        1.0606770337        9.9375538646
  C         5.1513189106        1.6539438877        8.7131320569
  C         5.9037459059        1.0931063869        7.6603726607
  C         6.6788491977       -0.0267095281        7.9697291418
  C         6.6342477548       -0.6699044475        9.1760620686
  H         7.0926634987       -1.6579870718        9.3091403229
  H         7.2392317819       -0.4971048681        7.1974383815
  H         5.8767404417        1.5374364663        6.6838443567
  H         4.5943005077        2.5243160876        8.5141362058
  H         4.6358251850        1.5333137914       10.7591032839
  C         8.2204040870        0.6932135338       11.6471753165
  C         9.2309294866        1.4056083337       12.2931049549
  H         9.8392983505        2.1138432387       11.7486956494
  H         8.2563777995        0.7339525900       10.5761063376
  C         4.2543558375       -2.4713232589       15.8496709121
  C         5.2337394079       -3.4767446771       16.1970852467
  C         5.3680503111       -3.8470717111       17.5425906584
  C         4.5604539685       -3.2878580236       18.5231948212
  C         3.5313684904       -2.4224138313       18.1972010124
  C         3.4366261908       -2.0029631683       16.8865864435
  H         2.6688194308       -1.1959887986       16.6173612052
  H         2.7353311100       -2.1056167198       18.8937630547
  H         4.7779157630       -3.4681145515       19.5684734446
  H         6.1461295772       -4.5488570110       17.8561725034
  H         5.9440855492       -3.8066963534       15.4388967061
  C         1.9228862502       -3.2300355181       14.3973852514
  C         0.7943163798       -3.7719235570       13.7830756060
  C         0.7072999023       -3.6630195584       12.3524677407
  C         1.6649164962       -2.9681387749       11.6512086391
  H         1.6118262632       -2.9386889180       10.5861069979
  H        -0.1187272871       -4.2004526233       11.8093625162
  H         0.1074158461       -4.3903612719       14.3973148863
  H         2.0176635495       -3.4430542706       15.4286524970
  C         4.0863783435       -2.1750324979       10.1393584116
  C         4.7618685779       -3.2916493726        9.6273405919
  C         4.5373447334       -3.7364438136        8.2722647871
  C         3.6529960091       -3.0464746042        7.4197217329
  C         2.9426333067       -1.9807899636        7.9201101655
  C         3.1813180412       -1.5158388377        9.2529891751
  H         2.6395734886       -0.5853431997        9.4860550818
  H         2.2525993085       -1.2878753432        7.3759151101
  H         3.5481451579       -3.3256301151        6.3759253074
  H         5.0718062278       -4.6127160247        7.8729032565
  H         5.3645993509       -3.9452458074       10.2644482180
  C        12.2883164511       -1.3758563701       13.7879320991
  C        13.2393942227       -0.6197714634       14.5201939673
  C        14.3651705498       -0.0999731371       13.8711929252
  C        15.4632013912        0.5598845421       14.6023945384
  C        16.4921221444        1.2022171908       13.9196907475
  C        13.1760005332       -0.2819535930       15.9253720304
  C        12.5153294317        0.8144820738       16.4852941417
  C        12.8204556411        1.2429131238       17.8036939963
  C        13.6468989656        0.4812691801       18.6555011528
  C        14.3279749718       -0.6561530024       18.1028632371
  C        14.0200700375       -1.0402757922       16.8187912021
  H        15.5585116772        0.3258203439       15.6166221041
  H        17.3438826384        1.6997738077       14.4219286494
  H        11.8636503708        1.5207686811       15.8776228209
  H        12.2657186763        2.0827074960       18.1590680757
  H        13.8828211488        0.8099151482       19.6713886995
  H        15.1842313681       -1.0844268175       18.6478826592
  H        14.6174261809       -1.7669109379       16.3002254572
  C        12.3328259376       -1.4554298934       12.3569409369
  C        11.2728563166       -2.1101071893       11.6422716061
  C        10.1306084063       -2.5639153854       12.3674683338
  C        10.0945275591       -2.6444721455       13.7770033051
  C        11.1869174752       -2.1187190223       14.5448584327
  C        14.3785496233       -0.0785404599       12.4414492108
  C        13.3495913482       -0.7025175023       11.6984051197
  C        13.3682878296       -0.3765773626       10.2048870185
  C        12.6530049296        0.8034201853        9.8172402408
  C        12.7221345290        1.3107425448        8.5215103872
  C        13.6025341829        0.7204490933        7.5562602074
  C        14.3238835397       -0.4397785341        7.9536633823
  C        14.2101548598       -0.9791627662        9.2624679619
  H        14.7904564110       -1.8405345634        9.4994511766
  H        14.9942667154       -0.8168167205        7.1800075593
  H        13.8128510650        1.2347789235        6.5695527109
  H        12.2175567577        2.2775222301        8.3725462567
  H        11.9576021740        1.2181096193       10.5337030128
  C        15.4249279094        0.6315720047       11.8044384710
  C        16.3621355593        1.3053161475       12.5302436780
  H        17.1477101831        1.8888270875       11.9887734654
  H        15.4478332914        0.6872006442       10.7138555809
  C        11.4311160302       -2.5544807858       15.9397866714
  C        12.1997194167       -3.6662095995       16.2981212333
  C        12.4073630319       -3.8938793778       17.6476490650
  C        11.7269875909       -3.2297866794       18.6663595648
  C        10.7978192696       -2.2710958232       18.3037052538
  C        10.6674524301       -1.9526689576       16.9149578149
  H        10.0247449515       -1.0781315610       16.6194988536
  H        10.2856632027       -1.7043085082       18.9906147208
  H        12.0005294884       -3.4243266876       19.7156997251
  H        13.1089881714       -4.6585658569       18.0144506631
  H        12.6963916776       -4.2968982663       15.5831004331
  C         9.0384876092       -3.3746425079       14.4191848346
  C         8.0356411324       -3.9715832520       13.6607782076
  C         7.9911758679       -3.7744885469       12.2702143545
  C         9.0241049583       -3.1020771438       11.6213258414
  H         8.9646113792       -2.9646726272       10.5430887919
  H         7.0955431154       -4.0479073413       11.7806665367
  H         7.2343778641       -4.5450246884       14.1619370567
  H         9.1682824448       -3.5001590395       15.4920133815
  C        11.4716438868       -2.4842132147       10.2055924429
  C        12.1959680447       -3.6425675221       10.0279529616
  C        12.1495710695       -4.4779542396        8.8285705756
  C        11.4432748491       -3.9378576044        7.7626841377
  C        10.7770761374       -2.6837442285        7.9151989144
  C        10.7379784876       -1.9878160944        9.1393330580
  H        10.1338005681       -1.1151063549        9.3649119232
  H        10.2786219984       -2.2849258825        7.0866440212
  H        11.3580995047       -4.4653826268        6.8405145768
  H        12.5932475251       -5.4618984379        8.8242471104
  H        12.8202123196       -3.8834040103       10.8698333329
