140

  C         5.1073615839       -1.1803131666       13.7484771758
  C         6.2228245307       -0.5098526168       14.3672881365
  C         7.3618712903       -0.0182501675       13.6162973662
  C         8.5518382651        0.4562586434       14.2631613244
  C         9.6079750049        0.9992516670       13.5659947125
  C         6.2015636279       -0.2055248881       15.8148728024
  C         5.4727951440        0.9146994648       16.1252851678
  C         5.2891729433        1.3583487050       17.4613561828
  C         5.9316280180        0.6819644388       18.4588523188
  C         6.7489238187       -0.3811496397       18.1207683671
  C         6.8765130345       -0.8573449254       16.8028264522
  H         8.5913273652        0.3433149399       15.3654455195
  H        10.5462151872        1.1802657214       14.1073673580
  H         5.0161093725        1.4503583601       15.2879762727
  H         4.5745235132        2.1836989302       17.6723557738
  H         5.7777735717        0.9106106228       19.5055648978
  H         7.4149870981       -0.9027746371       18.8114879476
  H         7.6309785263       -1.5832472076       16.5931478715
  C         5.1009881546       -1.1342296164       12.2555370945
  C         4.1288341080       -1.9272406085       11.5867095083
  C         3.1150970339       -2.6145405527       12.3563240715
  C         3.1545785595       -2.6546528509       13.8142911631
  C         4.1414722905       -1.9331685780       14.4714335490
  C         7.2966096034       -0.0216344556       12.1722717400
  C         6.1579805869       -0.5731000817       11.5372282083
  C         6.1464535599       -0.3149708556       10.0333081121
  C         5.2328963604        0.6189757192        9.4899007453
  C         5.3197461443        1.0387000526        8.1486602175
  C         6.2286772399        0.3998674564        7.2967292045
  C         7.0093939712       -0.6246747707        7.7847191972
  C         6.9683784533       -0.9896821120        9.1337047293
  H         7.6638308353       -1.7748617344        9.4245908068
  H         7.7044491033       -1.1136045261        7.1671604271
  H         6.2872740627        0.7638181466        6.3143444322
  H         4.7012505766        1.8451760363        7.7902325508
  H         4.6470699627        1.2988809240       10.0962804161
  C         8.3794364554        0.5796802291       11.4648414025
  C         9.4905683370        1.0892451689       12.1426586655
  H        10.1627484506        1.6306833881       11.5199822068
  H         8.1873277276        0.7440530865       10.4402428785
  C         4.1286832893       -2.2250227384       15.9136877176
  C         4.6843000237       -3.4515552637       16.2775138882
  C         4.5625345148       -3.9864273573       17.5629847111
  C         3.9747027520       -3.2880804495       18.5724253920
  C         3.3987121424       -2.0807341984       18.2657501279
  C         3.3979591063       -1.5174762456       16.9816965460
  H         2.8407453745       -0.5586856052       16.8030433310
  H         2.8001073887       -1.5514306026       19.0008553491
  H         3.9616828201       -3.6813637260       19.5840325650
  H         4.8819312196       -5.0181272770       17.7168891112
  H         5.2234083104       -4.0620651438       15.5108984563
  C         2.1239199938       -3.4434898300       14.5067415482
  C         1.2140926150       -4.1652262493       13.8546151244
  C         1.0969264825       -4.0516026519       12.4439711432
  C         1.9903550057       -3.3276050253       11.7221896250
  H         1.9269497384       -3.2338997562       10.6604532414
  H         0.3015068161       -4.5948144899       11.9216616563
  H         0.4993644230       -4.7854443135       14.4143769181
  H         2.1642556598       -3.4883255168       15.5478601119
  C         4.1439631011       -2.3343093719       10.1375329231
  C         4.9560275468       -3.4421450426        9.7457585609
  C         4.9555104874       -3.9057475566        8.4443808305
  C         4.1421539736       -3.4024122393        7.4738049748
  C         3.2100238161       -2.3628931820        7.8565247261
  C         3.2334572542       -1.8727219764        9.1253139855
  H         2.5563141174       -1.0519947750        9.3906894941
  H         2.5634611556       -1.9447098713        7.0406797578
  H         4.1329549400       -3.9021855608        6.5022508082
  H         5.5578496231       -4.8303180226        8.2152060371
  H         5.5481751843       -4.0059907307       10.4549299460
  C        12.5088715698       -1.6199965328       13.8157920916
  C        13.4827547469       -0.9295186417       14.5713140851
  C        14.5363944976       -0.2707520113       13.8924229848
  C        15.6549570511        0.2924629456       14.6061978033
  C        16.6569562793        0.9815294114       13.9503392382
  C        13.3641660624       -0.6559168793       16.0430158622
  C        12.6333652538        0.4186362015       16.4649150806
  C        12.5063930499        0.6627592362       17.8660187406
  C        13.2328544533       -0.1640580353       18.7847535585
  C        14.1288349430       -1.1180385454       18.2511815007
  C        14.1949949567       -1.3759595852       16.9055859377
  H        15.7245454285        0.2051071919       15.6364898888
  H        17.5022455208        1.5736604446       14.4673698454
  H        11.9161679271        0.9689675814       15.8426666110
  H        11.8323746227        1.4299980690       18.2576458019
  H        13.3048723142       -0.0067182805       19.8723968558
  H        14.8422013018       -1.6464320026       18.8972607863
  H        14.7962944123       -2.1915027597       16.5636880032
  C        12.4989278864       -1.5309709466       12.3580095019
  C        11.3397906913       -2.1008886292       11.6418732807
  C        10.2489168861       -2.7226770069       12.3020360189
  C        10.3392243148       -2.7996161797       13.7565667602
  C        11.3985275673       -2.2930487629       14.5147573031
  C        14.4907781361       -0.1173242706       12.4633869585
  C        13.4533920983       -0.6957764836       11.7129258254
  C        13.3618254911       -0.3780873443       10.3018408618
  C        12.3712753124        0.5421113730        9.8515345960
  C        12.3940565115        1.0054733891        8.5385729867
  C        13.4154747583        0.7099172543        7.5710949365
  C        14.3661005578       -0.2242472574        8.0098940544
  C        14.3672350390       -0.7092832670        9.3808765147
  H        15.1699904805       -1.3675012003        9.6223284611
  H        15.1127566651       -0.5225567599        7.2551921151
  H        13.3753729709        1.0820229083        6.4996909015
  H        11.5157992356        1.6486361864        8.1712244887
  H        11.6203265277        0.9377074319       10.4736494551
  C        15.5717946454        0.5912578600       11.8391900926
  C        16.6478793745        1.0916118828       12.5370958454
  H        17.3864560566        1.7475706341       12.0418194208
  H        15.4319707839        0.8730494186       10.7855450175
  C        11.4028257764       -2.5381294256       16.0190728270
  C        12.0686961784       -3.7065241593       16.4851516165
  C        11.7350743633       -4.2713166897       17.7297887226
  C        10.8280164864       -3.6152395835       18.5694426375
  C        10.2685674814       -2.4045751885       18.1406673205
  C        10.5553971823       -1.8804116559       16.9072571610
  H         9.9875005745       -1.0043592123       16.5711816569
  H         9.5920557939       -1.9158083131       18.7653979292
  H        10.4717747943       -4.1698887647       19.4819034077
  H        12.0495177679       -5.2744431712       17.9114816187
  H        12.7806417814       -4.1932379269       15.8364743383
  C         9.2219723210       -3.4126506128       14.4315538399
  C         8.0743309381       -3.8549872825       13.7221281186
  C         8.0476816984       -3.8509308342       12.3355621644
  C         9.1418735172       -3.3344755315       11.5960785774
  H         9.1863559488       -3.2718098141       10.5248542037
  H         7.1099240308       -4.1330750099       11.9002634072
  H         7.3566086144       -4.3773897424       14.3213949584
  H         9.2504190009       -3.4331710119       15.5198801056
  C        11.4118530061       -2.4502630818       10.1657522985
  C        12.3075607000       -3.3822637363        9.6782048663
  C        12.3706130964       -3.6951239813        8.3037182083
  C        11.3451619061       -3.2610921943        7.4671697373
  C        10.2958902712       -2.3773137541        7.9296147213
  C        10.4493687980       -1.9341196698        9.2774573526
  H         9.8224441110       -1.1939128929        9.8368486406
  H         9.6342011890       -1.9270976831        7.2506086812
  H        11.4051551435       -3.5511174487        6.4338637623
  H        13.0935466300       -4.3511368740        7.9374385081
  H        13.1154247464       -3.5727526331       10.3778669430
