140

  C        10.0323899079        7.3836739753        1.1449731666
  C         9.0038794728        8.1517857292        1.7969301789
  C         7.9291217946        8.7005962630        1.1426088740
  C         6.8584054442        9.3446560927        1.7972599722
  C         5.9770967271       10.0268341756        1.0714755073
  C         9.0521482696        8.4003224107        3.2728902821
  C         9.8268174853        9.4826132653        3.7859667321
  C         9.6915861676        9.7331325664        5.1594588066
  C         8.9778039931        8.9289481074        5.9736150209
  C         8.1873119853        7.8809110922        5.4653027128
  C         8.2008609691        7.7132614595        4.0899482901
  H         6.8851366285        9.3346429313        2.9165751437
  H         5.1772584814       10.5159840574        1.5664167676
  H        10.3514753382       10.1225867737        3.0739325467
  H        10.0771931917       10.6388378297        5.5744809132
  H         8.9430166515        9.1249363785        7.0703561029
  H         7.5732054564        7.2664977330        6.0825158467
  H         7.5065562637        7.0647784230        3.5640164595
  C        10.0804425311        7.3457559692       -0.3749272093
  C        11.1473220256        6.7748214361       -1.0792314219
  C        12.2614392687        6.2815985578       -0.3237711254
  C        12.2797338089        6.2553689192        1.1227208822
  C        11.0762433972        6.6949088265        1.8248394830
  C         7.9421935129        8.6764199218       -0.3224638946
  C         9.0403761515        8.1394695458       -0.9763358609
  C         9.1608203557        8.6204427937       -2.4704006686
  C         9.9488216194        9.7648333868       -2.5675183289
  C        10.1645471007       10.2854311806       -3.8289216039
  C         9.5684414420        9.6404377216       -4.9501107324
  C         8.5984766452        8.5508596832       -4.8195371343
  C         8.4347532081        8.0463670348       -3.5538057231
  H         7.7769350643        7.2257754439       -3.2652647370
  H         8.0641598513        8.1857195123       -5.7077126654
  H         9.8390799855        9.9863330483       -5.9495412483
  H        10.8030490588       11.1334676298       -3.9990845497
  H        10.5536316647       10.2356091201       -1.8123921653
  C         6.9184796777        9.4293643067       -1.0373185547
  C         5.9274335779       10.0812661853       -0.4107754968
  H         5.1057541628       10.5481856089       -0.9502001412
  H         6.8047792969        9.5144334217       -2.1280868496
  C        11.1019873373        6.3855401894        3.2912124106
  C        10.2812148271        5.2545921728        3.6833732164
  C        10.0831194466        4.9817496258        5.0398676558
  C        10.8008869173        5.6062118951        6.0696248469
  C        11.7158851105        6.5383345597        5.6161697527
  C        11.8777991179        6.9344699295        4.3029231511
  H        12.4894622279        7.8346194958        4.1155521813
  H        12.2993490544        7.2117886598        6.3051184375
  H        10.6179066773        5.4238695033        7.1453572594
  H         9.3454764572        4.2262049920        5.3611586122
  H         9.6797704385        4.8375817341        2.8541894841
  C        13.3585727410        5.6781357407        1.8658296117
  C        14.4251298241        5.1191864078        1.2197290913
  C        14.4519407175        5.1418743962       -0.2219385062
  C        13.3616921447        5.5891600440       -0.9643693324
  H        13.3883412951        5.4643435418       -2.0399262778
  H        15.2979914395        4.7142721209       -0.7064480203
  H        15.2252175594        4.5718374132        1.7628615177
  H        13.3401340378        5.7666688583        2.9609516435
  C        11.1241882147        6.3925118119       -2.5184255856
  C        10.3086249783        5.2854830357       -2.8705762132
  C        10.3070965274        4.6393535933       -4.1357660542
  C        11.0261076182        5.3071412693       -5.1370104359
  C        11.7629549704        6.4194536767       -4.7898847755
  C        11.9463953813        6.9867940437       -3.5375301493
  H        12.6008566104        7.7944867515       -3.3486979884
  H        12.2831612086        6.8811805897       -5.6201194195
  H        11.1130439660        4.8420014150       -6.0918295803
  H         9.6645315552        3.7974960186       -4.3206774591
  H         9.7107587434        4.8697140940       -2.0765369940
  C        17.1503360852        7.3959043832        1.2110535729
  C        16.1676584932        8.1575040025        1.9163742202
  C        15.0100626076        8.6629307773        1.2219316037
  C        13.9471150409        9.3042004598        1.8642933718
  C        12.8729657808        9.7443456083        1.1597282692
  C        16.2344668237        8.4209213142        3.4170214356
  C        17.0220089390        9.4917205610        3.8684137322
  C        16.9901629931        9.9497268907        5.2490471892
  C        16.1076330041        9.2711284918        6.0821545929
  C        15.3388755116        8.1688727476        5.6810544034
  C        15.3804120402        7.8250373967        4.3049141963
  H        13.8591943301        9.2835174072        2.9612796156
  H        12.0068121977       10.1929585116        1.6777858850
  H        17.7344606633        9.9589012659        3.1319645526
  H        17.3934991060       10.9040789135        5.6011696472
  H        16.0989723734        9.6336698387        7.0796471640
  H        14.6545440797        7.6299045655        6.3088508632
  H        14.6964816487        7.0229145547        3.9868358722
  C        17.1002748242        7.4021082058       -0.2983801283
  C        18.1322116540        6.6511463441       -1.0062231282
  C        19.2948615603        6.2348510945       -0.3129896771
  C        19.2672977235        6.1435704287        1.2052806459
  C        18.1365583536        6.6530042949        1.9169024136
  C        15.0436291410        8.7756829881       -0.2728042608
  C        16.1075457550        8.1680312585       -0.9735172620
  C        16.2928656199        8.5303287404       -2.4539959747
  C        17.1087837661        9.5879351136       -2.8104095572
  C        17.0418349569       10.0399478941       -4.1305876234
  C        16.1569291911        9.5777089692       -5.0626821655
  C        15.3393226834        8.5072986189       -4.7260073702
  C        15.3807858653        8.0027816007       -3.4238423096
  H        14.7372489813        7.1986028622       -3.0520138697
  H        14.7547414967        7.9633354727       -5.4745137046
  H        16.1043607516       10.0077476163       -6.0692287009
  H        17.7316168901       10.7978507422       -4.3934495731
  H        17.5478187649       10.2551832261       -2.0808213734
  C        14.0072583083        9.4706791094       -0.9502705877
  C        12.9117424239        9.8369072611       -0.2309771606
  H        12.0714082920       10.1995119575       -0.7160699519
  H        14.0434376306        9.7208337651       -1.9832181179
  C        18.0665488038        6.3792447821        3.3618051772
  C        17.0738549405        5.4530099599        3.7801663023
  C        17.0127045639        4.9236033278        5.1192967814
  C        17.9462053148        5.3172874779        6.0720034675
  C        18.9388258027        6.2915633035        5.6453597317
  C        19.0090003684        6.7859240344        4.3675020114
  H        19.7017556648        7.5578678042        4.0837082190
  H        19.6777810697        6.6636892761        6.3804765134
  H        17.9790386343        5.0663331183        7.1465184807
  H        16.3207632900        4.1588189940        5.4498017652
  H        16.1920954110        5.2506464344        3.1884965224
  C        20.3813663013        5.4127650843        1.7941093712
  C        21.4526284472        4.9583320206        1.0131433962
  C        21.4961146976        5.1640157769       -0.4264542157
  C        20.4147696560        5.7956488886       -0.9996250378
  H        20.2946340386        5.7838251395       -2.0891623597
  H        22.3218669853        4.8632676747       -1.0631923285
  H        22.3304809909        4.4298378863        1.4264604513
  H        20.2809463808        5.1570582052        2.8269804331
  C        18.0788858295        6.3282700712       -2.5383278601
  C        17.3915538287        5.2200850347       -2.9695990932
  C        17.3355072686        4.8787413589       -4.3439064350
  C        18.1344585030        5.6102783249       -5.2618181499
  C        18.9614850001        6.6628283788       -4.8184846490
  C        18.8707665727        7.0403289420       -3.4691062467
  H        19.4055012382        7.9140654197       -3.0839874253
  H        19.5763109137        7.2142756732       -5.6300821881
  H        18.1923304120        5.3346960325       -6.3015195142
  H        16.6830515316        4.1700062132       -4.7744489482
  H        16.8069314194        4.5594416786       -2.3156440375
