140

  C         3.5048542406       -0.0223767561       14.7088391737
  C         4.5030887117        0.7841106777       15.3406987576
  C         5.5769980192        1.3691549852       14.6988983451
  C         6.6492951104        2.0784086448       15.4013016263
  C         7.7346263049        2.5395803523       14.6562939219
  C         4.2791435405        1.1113727802       16.7602124750
  C         3.0872868394        1.8255687548       17.1413098422
  C         2.9688816661        2.5490743731       18.3472199865
  C         3.9755400059        2.4184563004       19.2990676742
  C         5.0719990622        1.6203277115       19.0432458697
  C         5.2013606297        0.8895641404       17.8269426592
  H         6.7426050448        2.2374111447       16.4700165246
  H         8.6198923225        2.9779304678       15.1128119303
  H         2.3935349021        1.9905205300       16.3368260385
  H         2.1559994199        3.2182549841       18.6285326595
  H         3.9993599189        2.9300977415       20.2511717414
  H         5.9616780430        1.3982652493       19.6498694326
  H         6.0675791585        0.2403184376       17.6257539267
  C         3.4541285356       -0.0561115565       13.2328356666
  C         2.4251797559       -0.7139346499       12.5609880361
  C         1.3361916968       -1.3034405283       13.3101618332
  C         1.4014473793       -1.3462708560       14.7329088217
  C         2.5649600467       -0.8147044441       15.4062176043
  C         5.5754935032        1.3208030669       13.2464899087
  C         4.4935220764        0.7018189304       12.5398832022
  C         4.4445050885        0.9946049280       11.0159028533
  C         3.7106746824        2.2122307770       10.5916820332
  C         3.6610408543        2.4989969915        9.2331314037
  C         4.2307932575        1.6561860531        8.3526661027
  C         5.0328136213        0.5662289127        8.8106131937
  C         5.1873632604        0.2321470010       10.1246701673
  H         5.6913395642       -0.6255753403       10.5827298401
  H         5.6555697862        0.0810121301        8.1134194882
  H         4.1315271754        1.7146088415        7.2910204880
  H         3.0334429235        3.3208883526        8.8640875012
  H         3.2177965034        2.8713363294       11.3601867290
  C         6.6783909052        1.8344853463       12.5272333229
  C         7.7443075754        2.4256019971       13.2326985090
  H         8.6762208093        2.7212712438       12.7006336827
  H         6.6832705769        1.7743843005       11.4444459642
  C         2.7470855074       -1.1329730836       16.8450117917
  C         3.8252067541       -1.9837030209       17.2749900407
  C         3.9977628561       -2.4445059643       18.5752855875
  C         3.0857493382       -2.0429401658       19.5624907162
  C         1.9586632665       -1.2543223052       19.2034108655
  C         1.7799249725       -0.8146447200       17.8918819729
  H         0.8488367806       -0.2486142470       17.7421262743
  H         1.2383207092       -1.0321577201       19.9323161933
  H         3.0985455890       -2.4467677955       20.6276329784
  H         4.8110819439       -3.0873214307       18.8244597803
  H         4.5370531128       -2.2335906092       16.5498359930
  C         0.5108677208       -2.1363515824       15.4767573340
  C        -0.4945313054       -2.7745097649       14.8354138308
  C        -0.6546177451       -2.6422786407       13.4080947961
  C         0.1971037563       -1.9126175303       12.6259191203
  H         0.0808243026       -1.8622677799       11.5627081665
  H        -1.6049863318       -3.0754731778       12.9675606129
  H        -1.2880101205       -3.3038699092       15.3416470927
  H         0.6507102598       -2.2592598395       16.5914131856
  C         2.3910523479       -0.9700058729       11.0596502705
  C         3.3433891222       -1.9418399626       10.5616998473
  C         3.3311518757       -2.1892630300        9.2305548739
  C         2.3185789890       -1.7473033082        8.4187846026
  C         1.4467099115       -0.7831327199        8.8807041425
  C         1.4921751076       -0.3632250698       10.1907141508
  H         0.7423732495        0.3363534857       10.5520059131
  H         0.7476812443       -0.3517030517        8.1691539481
  H         2.3102494463       -1.9838706746        7.3364705381
  H         4.0863971426       -2.8697827871        8.8749057724
  H         4.0051845023       -2.4653825196       11.3036680158
  C        10.9003223380        0.2316278989       14.3297572479
  C        11.9969404648        0.9910573851       14.9799373836
  C        13.0170798314        1.5889823578       14.2280455922
  C        14.1096313120        2.3230798587       14.9020204979
  C        15.0845150379        2.9944040410       14.1812628072
  C        11.9310675596        1.3472533785       16.4481662199
  C        11.2821645290        2.5655956244       16.7206150924
  C        11.2256391344        3.0274592900       18.0582575234
  C        11.8164268656        2.3500472572       19.0945153709
  C        12.5020523799        1.1413283085       18.8923048014
  C        12.5821853759        0.6763479727       17.5375417806
  H        14.2822077266        2.2688850934       15.9317891894
  H        15.9695508242        3.2962127747       14.7229369316
  H        10.7702379589        3.0473159603       15.8870220192
  H        10.8500265904        4.0070004273       18.2499468344
  H        11.9036278532        2.7869505595       20.1075616268
  H        13.0020603397        0.5976103114       19.7341420078
  H        13.1667237352       -0.1994009404       17.3310759963
  C        10.9250468980        0.2256801169       12.8685413290
  C         9.9532474783       -0.6551267705       12.2342875659
  C         8.8309834217       -1.0585383515       12.9816402775
  C         8.7245099596       -0.9042800261       14.4043335482
  C         9.7912324254       -0.3202937726       15.0686736029
  C        12.9626181818        1.6540662627       12.7605440169
  C        11.9290509661        0.8761208156       12.1158227794
  C        11.7336700567        1.2595242683       10.6719631403
  C        10.7011310525        2.1818292054       10.2885941171
  C        10.4637927208        2.5571523628        8.9727479949
  C        11.3910728892        2.1530917569        7.9891187271
  C        12.3507109190        1.1823965540        8.2847657891
  C        12.5485960774        0.7704254399        9.6273756725
  H        13.2688558101       -0.0048012646        9.8465369291
  H        13.0331160648        0.8660348054        7.5258870967
  H        11.3501791907        2.5295352289        7.0053257290
  H         9.7191423840        3.3229340408        8.6717571718
  H        10.0712264434        2.4426100480       11.1510991844
  C        13.8241441605        2.5399277110       12.0608482558
  C        14.9494290457        3.0624978955       12.7398753281
  H        15.7168654302        3.5953906358       12.1860304377
  H        13.7804597067        2.5493193403       10.9534891648
  C         9.8091290820       -0.4991122259       16.5119177808
  C        10.6565177178       -1.5973143728       16.8710104012
  C        10.8113155524       -2.0374031281       18.1995741470
  C         9.9215350603       -1.5233674643       19.1403106873
  C         9.0030806700       -0.5351674515       18.8029821781
  C         8.9431047303       -0.0314418935       17.5051689839
  H         8.2397081471        0.8062910337       17.3202041400
  H         8.2983726756       -0.1865171913       19.5475011788
  H         9.8702880125       -1.8973366013       20.1328853373
  H        11.4968537619       -2.8312110149       18.5143184998
  H        11.2763167472       -1.9303281608       16.0296501644
  C         7.5995548946       -1.4464383004       15.0723666553
  C         6.7150334174       -2.2520689170       14.4377426069
  C         6.7846242053       -2.3794039142       13.0201002858
  C         7.7642225956       -1.7757660593       12.3275574315
  H         7.9068983133       -1.9547867244       11.2382705946
  H         6.0838902593       -3.0307884728       12.5129274070
  H         5.9162292104       -2.7244996942       15.0095329197
  H         7.5520721707       -1.2028237717       16.1315396940
  C        10.0903277738       -1.0727738431       10.8470516154
  C        11.0263131003       -2.0815976758       10.4494895475
  C        11.0671311530       -2.5984594004        9.1428933477
  C        10.1217568028       -2.1190255370        8.1806484684
  C         9.2361784049       -1.1254270574        8.6009473290
  C         9.2213873270       -0.5429374918        9.8371096299
  H         8.4140440301        0.1780271746       10.0208572546
  H         8.6220164097       -0.7184136307        7.8056368485
  H         9.8707218164       -2.6348500073        7.2524604991
  H        11.8644388387       -3.3067111161        8.9597443689
  H        11.7697269298       -2.4467226865       11.1375743157
