140

  C        10.3688008229        7.4585159347        1.1433381646
  C         9.2775412896        8.0854323797        1.8389172661
  C         8.2232754654        8.6330669571        1.0746696622
  C         7.1512955824        9.3772093075        1.7243820221
  C         6.1959818702       10.0275947847        1.0080487410
  C         9.3074190872        8.3543673719        3.2907478382
  C        10.1731301780        9.3142352259        3.7866864476
  C        10.0687380713        9.6962029679        5.1195957616
  C         9.2064032851        9.1005260035        5.9735278261
  C         8.4297869073        8.0164461039        5.5198937401
  C         8.4466727455        7.6488089584        4.2237674850
  H         7.1597951606        9.6043124416        2.7561579832
  H         5.4443173664       10.5348037074        1.5594577319
  H        10.8497458385        9.7449854197        3.0239819764
  H        10.7517086855       10.5114180584        5.4480248062
  H         8.9850579574        9.5476933342        6.9407163602
  H         7.6883417758        7.6451009467        6.1903165853
  H         7.9189585846        6.7265796714        4.0715720926
  C        10.3558362451        7.3916861478       -0.3390614375
  C        11.3196032345        6.5299822720       -1.0758395843
  C        12.4055414649        5.9701107812       -0.3572825789
  C        12.3780182327        6.0642185617        1.1203936841
  C        11.3990581519        6.7511913939        1.8012312442
  C         8.2328681078        8.5409776121       -0.3819966913
  C         9.3380427954        8.0247083051       -1.0654160176
  C         9.4212744449        8.3406701322       -2.4859040185
  C        10.2940671635        9.3670573491       -2.9752407154
  C        10.2660765709        9.8053877626       -4.3119250031
  C         9.4955417464        9.1275741769       -5.3104517343
  C         8.5541571760        8.1828142967       -4.8216262917
  C         8.6206216065        7.7289497776       -3.4684616254
  H         7.9796661704        6.8438924594       -3.1861786723
  H         7.9236888408        7.6835525448       -5.5543069027
  H         9.5284343683        9.3731184609       -6.3837116974
  H        10.9203743741       10.5353455817       -4.6892194769
  H        10.9675949099        9.8228542276       -2.2438577520
  C         7.0893404326        9.1774091766       -1.0703290703
  C         6.1779509429        9.8828271394       -0.4217348914
  H         5.3754056654       10.4279629684       -0.9305632788
  H         7.0859868915        9.1764798452       -2.1792283482
  C        11.2658465129        6.3319669415        3.2360691903
  C        10.4154423663        5.2901251923        3.6755126908
  C        10.4810654805        4.8463102520        5.0665210181
  C        11.4502703286        5.3710438970        5.9198556715
  C        12.2424457805        6.4618835186        5.4355177109
  C        12.1753970703        6.9407805153        4.1557718709
  H        12.6872290372        7.8684220466        3.8632078483
  H        12.7515087619        7.0642650884        6.1699410615
  H        11.5236564143        5.0949071002        6.9550391361
  H         9.7324965514        4.0755785223        5.2110661741
  H         9.6552097304        4.9033898830        2.9153653360
  C        13.3927265458        5.2317182193        1.7014605783
  C        14.3356171434        4.5132768820        0.9646592284
  C        14.4284373277        4.7199660007       -0.4547119602
  C        13.4934170145        5.4066686050       -1.0515298451
  H        13.5450864966        5.5532484022       -2.1779697516
  H        15.1711064890        4.1244206779       -0.9702420859
  H        15.0804130823        3.7719014703        1.4035386349
  H        13.4953943883        5.0180387308        2.7657018299
  C        11.0927926800        6.0045168761       -2.5285245899
  C        10.2771898178        4.9564268219       -2.9508411843
  C        10.2642072511        4.4553099293       -4.3279988739
  C        11.0398858245        5.0756288242       -5.2804914844
  C        12.0995882923        5.9487465606       -4.8397163925
  C        11.9887595833        6.5295173783       -3.5350924290
  H        12.7173430414        7.3387196084       -3.1982880787
  H        12.7440475932        6.2993711597       -5.6282446860
  H        11.0433619094        4.7593851358       -6.3128490581
  H         9.6131153001        3.5626448657       -4.6074950442
  H         9.7905298556        4.4753126874       -2.0777037864
  C        17.5720484153        7.0289225027        1.3100870978
  C        16.4551572574        7.6657441525        1.9208972618
  C        15.4570957684        8.3344313236        1.1694190343
  C        14.4429976018        9.0508218941        1.8180348273
  C        13.4435244008        9.6599491426        1.1066433936
  C        16.5186660521        8.0421953531        3.4109671980
  C        17.3370435187        9.1987331699        3.7835167263
  C        17.4645186526        9.6787104670        5.1044369388
  C        16.6991085402        8.9844139060        6.0459060677
  C        15.9963087146        7.8181185863        5.7783514363
  C        15.8886060335        7.3984589213        4.4636524420
  H        14.4623966556        9.0755757716        2.8835005662
  H        12.7424659020       10.3530878122        1.6121202408
  H        17.7881333112        9.7766683271        2.9992223004
  H        18.0947528054       10.5391670623        5.3446541105
  H        16.5895271733        9.3223165005        7.0814816310
  H        15.5276395229        7.2902251686        6.5798391565
  H        15.1369249511        6.6671226860        4.2066438069
  C        17.6010685526        7.1039667480       -0.1502324139
  C        18.5671729949        6.3393644970       -0.8674657159
  C        19.5970100979        5.6715575693       -0.0826847035
  C        19.6903339661        5.8065719974        1.3705900127
  C        18.5306874511        6.3381528350        2.0729939041
  C        15.3899174024        8.2808645885       -0.2595534888
  C        16.5099282865        7.6533453208       -0.8897417165
  C        16.6748372687        8.0640649647       -2.3344520959
  C        17.5751329985        9.1199319309       -2.5943440988
  C        17.6091375133        9.7628207030       -3.8214511541
  C        16.6604427762        9.3914351744       -4.7643254099
  C        15.8039032798        8.2950596373       -4.6062889831
  C        15.7587353251        7.6979387706       -3.3548261966
  H        15.0305928254        6.9178934995       -3.2111007781
  H        14.9827918443        8.1903545279       -5.2878072227
  H        16.5471696494        9.9347702109       -5.7246757147
  H        18.2878968056       10.6301026922       -4.0019413345
  H        18.0806378840        9.4459357845       -1.6961645741
  C        14.3606441145        8.9429376400       -0.9388578573
  C        13.3697849626        9.5272334500       -0.2473409477
  H        12.5653410995       10.0117761376       -0.7396479751
  H        14.3617342921        8.9846201072       -1.9992172233
  C        18.5570749974        6.0878243832        3.5719538985
  C        17.7199758635        5.0431274571        4.1154161861
  C        17.8305100748        4.6049069635        5.4415513717
  C        18.6931181587        5.2502969108        6.2722697278
  C        19.4216690747        6.3395132564        5.8532420739
  C        19.3510033694        6.7506793036        4.5185704766
  H        19.9298993904        7.6259578418        4.2473231879
  H        19.9380830031        6.9136565450        6.6100688810
  H        18.8248472712        5.0346793314        7.3523989263
  H        17.1859148504        3.7374517060        5.7221061287
  H        16.9620314270        4.6222306136        3.4124463464
  C        20.8880280781        5.2977597008        2.0797434329
  C        21.8978506056        4.6856702887        1.3632828252
  C        21.7380919848        4.3737681245       -0.0675535986
  C        20.6618847060        4.8786868828       -0.7254903890
  H        20.6610712828        4.8191389065       -1.8174834545
  H        22.4277469585        3.7824517087       -0.6510687075
  H        22.7729881408        4.3569190123        1.8754869380
  H        20.8990458378        5.4908895630        3.1668173795
  C        18.5541587752        6.0217899433       -2.3045433520
  C        17.8061458168        4.8340511002       -2.6800244039
  C        17.7907350064        4.4270571488       -4.0136197303
  C        18.6176539921        5.0553196438       -4.9713768950
  C        19.2960462131        6.2258497317       -4.6209272042
  C        19.2358392350        6.7759477843       -3.2798219156
  H        19.8782825386        7.5964783039       -3.0987653560
  H        19.9682778134        6.6732340430       -5.3205646642
  H        18.8271539281        4.6833321440       -5.9490894947
  H        17.0889074065        3.6603826817       -4.2762442425
  H        17.1033951546        4.3707141751       -2.0155282639
