140

  C         5.2031060144       -1.2242750687       13.4058115635
  C         6.2489858937       -0.4795662786       14.0627871818
  C         7.3673132682       -0.0367659975       13.3596514299
  C         8.5748328396        0.5316575579       13.9523326199
  C         9.6108719008        1.0556012647       13.2441973100
  C         6.2063389082       -0.0602923015       15.5101266679
  C         5.2268681323        0.8641536678       15.8731620058
  C         5.1498115978        1.3193391052       17.1773795390
  C         5.9989084762        0.7745949559       18.1652644067
  C         6.9008842550       -0.2824015369       17.8627931382
  C         6.9729327672       -0.6795287089       16.5162080297
  H         8.5888333355        0.6505349544       15.0236131128
  H        10.4527030227        1.5381662995       13.8032750697
  H         4.6973432960        1.3896654039       15.0798959214
  H         4.4265978955        2.1191485563       17.5632153328
  H         5.8551967765        1.1046593954       19.1863810421
  H         7.5424942903       -0.7890641726       18.5990866552
  H         7.6733015480       -1.3791585768       16.1844740153
  C         5.2360507783       -1.3356948923       11.9121795610
  C         4.2441506593       -2.1458685262       11.2094572328
  C         3.1589533907       -2.6418451421       11.9281599252
  C         3.0985827370       -2.5881996925       13.3615482439
  C         4.1244412931       -1.9593390734       14.0734296527
  C         7.4122048515       -0.1800425247       11.8933535062
  C         6.3082389020       -0.7637599826       11.2638988745
  C         6.2609719467       -0.3923237628        9.8065377939
  C         5.2195654305        0.5284378299        9.4179499215
  C         5.1118426529        0.8914051109        8.0438596456
  C         5.9896339162        0.2626300441        7.0891922908
  C         6.9657164618       -0.6430356432        7.5388656232
  C         7.1278857555       -0.9665688171        8.9013351312
  H         7.9288014097       -1.5989703444        9.3171831855
  H         7.6695915985       -1.0440220103        6.8582896796
  H         5.7987195923        0.4079356428        6.0303723087
  H         4.3594209515        1.6166471608        7.6168848002
  H         4.5347125829        0.9705308894       10.1561737385
  C         8.4523827230        0.5538916782       11.1662568807
  C         9.5672778950        1.0847343822       11.8179830671
  H        10.3309220344        1.6358899953       11.2615255070
  H         8.5645063584        0.5542318935       10.0900941261
  C         4.1367247448       -2.2751424664       15.5556280373
  C         4.8385196987       -3.4505396940       15.9334321454
  C         4.9344421300       -3.9241595308       17.2347017557
  C         4.1778102454       -3.2592017037       18.1913203713
  C         3.4414906494       -2.0613195040       17.8587078156
  C         3.4666064506       -1.6076525645       16.5504737969
  H         2.8919685584       -0.7832080129       16.2191226143
  H         2.8712990044       -1.4323829547       18.5554439275
  H         4.0681452761       -3.4956936660       19.2622302934
  H         5.6053124016       -4.7286351390       17.4601583086
  H         5.3552097147       -4.0146838616       15.1437527977
  C         1.9414186278       -3.1223251839       14.0516292624
  C         0.9716128598       -3.8012970256       13.3729596058
  C         1.0412902293       -3.9376163925       11.9941720463
  C         2.0511952433       -3.3558059337       11.2787106130
  H         2.0458456646       -3.4312173444       10.1984218673
  H         0.3288338516       -4.6168323018       11.4823033627
  H         0.0064772333       -4.2478733186       13.8555134894
  H         1.8138427517       -2.9599428281       15.1210263893
  C         4.2493812946       -2.5742127562        9.7713227388
  C         4.9590683845       -3.7129735972        9.3213872900
  C         4.7015369023       -4.2639982999        8.0785930445
  C         3.7068512797       -3.6882031574        7.2056771214
  C         3.1609226359       -2.4361812489        7.6020179996
  C         3.4522848798       -1.8754803850        8.8515596919
  H         2.9744177170       -0.9513041243        9.2062853404
  H         2.5309357337       -1.9318589579        6.9245768442
  H         3.5929118864       -4.2120379507        6.2884605348
  H         5.2687248173       -5.1822424960        7.7659273205
  H         5.7820502542       -4.0976599165        9.9682931086
  C        12.1236548178       -1.2484788757       13.6307102207
  C        13.0936034744       -0.6080012945       14.3541413416
  C        14.3081298514       -0.1429767308       13.6974381052
  C        15.3433388342        0.4997442043       14.4125999089
  C        16.3559003089        1.1625333117       13.8015416194
  C        13.0781289138       -0.2838758331       15.8431483911
  C        12.3490750823        0.8070675437       16.3981189823
  C        12.5168980685        1.2022974394       17.7078422055
  C        13.4465201848        0.5316241037       18.5179155784
  C        14.2408146960       -0.4433006430       17.9698592211
  C        13.9725630109       -0.9081510556       16.6896656510
  H        15.1719228964        0.6215782121       15.4438092828
  H        16.9351913950        1.8302714674       14.3651732689
  H        11.6426977399        1.2901567950       15.6975239056
  H        11.9990566107        2.1040109805       18.0912192872
  H        13.6147686259        0.7641443189       19.5695376515
  H        14.9778081002       -0.9505533091       18.6110115756
  H        14.5013601572       -1.7768017244       16.4347198868
  C        12.2408194996       -1.4238079873       12.1262038323
  C        11.1371317664       -2.1004531734       11.5070069427
  C        10.0840011908       -2.6559898966       12.2140770925
  C        10.0108987014       -2.5678550212       13.6622837983
  C        11.1051737733       -1.9257681157       14.3952196291
  C        14.4218038256       -0.3192516696       12.2679311950
  C        13.3758283202       -0.9064664254       11.4507087883
  C        13.5002459065       -0.7147931451        9.9764088132
  C        12.7639793358        0.3862422870        9.3989340748
  C        12.9206068483        0.7414553595        8.0669749932
  C        13.8603139594        0.0619923322        7.2983513268
  C        14.5191647785       -1.0710357901        7.7942997003
  C        14.3144183267       -1.4942886752        9.1063120522
  H        14.8591233485       -2.3050561002        9.5371950305
  H        15.1880015488       -1.6396874088        7.1470066692
  H        14.0519670090        0.3226997712        6.3383336610
  H        12.4234237070        1.6660991545        7.7479019717
  H        12.1979714920        1.0248197510       10.1051144413
  C        15.6031719873        0.2530111632       11.6710913448
  C        16.5561783516        0.9648123280       12.4344725128
  H        17.5172891482        1.2828936712       11.9541870042
  H        15.6762692743        0.2340689696       10.6083624663
  C        11.0514777099       -2.1585642254       15.8694323436
  C        11.7730646305       -3.2964021830       16.2004106546
  C        11.9467318464       -3.6428489669       17.5606463244
  C        11.3327562507       -2.8746052566       18.5319101409
  C        10.4477976887       -1.8127140188       18.1532681085
  C        10.2794699122       -1.5011260513       16.7967710146
  H         9.6256905886       -0.7027934474       16.4725608189
  H         9.7648247132       -1.2986857910       18.9191411276
  H        11.3836753200       -3.1840616366       19.6475396189
  H        12.5219004143       -4.5014115610       17.7996417604
  H        12.2461148715       -3.8785108019       15.4052651215
  C         8.9597158262       -3.3680194232       14.2900086490
  C         7.9892173317       -3.9865871947       13.6248171715
  C         7.9554311549       -3.9112585528       12.1259845208
  C         9.0228354222       -3.3631018841       11.5077357003
  H         9.1835316763       -3.4511683042       10.4160469057
  H         7.1253927888       -4.4458209780       11.6866344829
  H         7.3055158685       -4.8016024477       14.0181433688
  H         8.9477969175       -3.3852071793       15.3867480907
  C        11.1648842016       -2.4619361511       10.0294733817
  C        11.9315272947       -3.5856019803        9.6021126180
  C        11.9528919070       -3.9682085319        8.2500284386
  C        11.1837595111       -3.2633744398        7.3026336827
  C        10.4474307031       -2.1839099145        7.7888430351
  C        10.6182373788       -1.6210099122        9.0426210173
  H         9.9804432627       -0.6844929128        9.1761326313
  H         9.8441816112       -1.6533364373        7.0126900884
  H        11.0945329490       -3.5903756580        6.2174877940
  H        12.6215558790       -4.7572715866        7.9919882003
  H        12.4943251714       -4.1617157023       10.3294007180
