140

  C         1.6837707864        0.7595388632       15.1834429164
  C         2.6489336598        1.5624038310       15.8192584948
  C         3.7470744331        2.1197354633       15.1102099727
  C         4.8032374934        2.8899484406       15.7447455875
  C         5.7521304072        3.6188176610       14.9927619123
  C         2.4780411610        2.0449222763       17.2480292588
  C         1.6954162584        3.1229286413       17.5570645625
  C         1.5945996551        3.7006966656       18.7993250275
  C         2.2059174694        3.0815130322       19.8938502744
  C         3.0779774056        2.0251401650       19.5974048843
  C         3.1982020522        1.4959761546       18.3161225575
  H         5.0726575843        2.8614828826       16.8598962950
  H         6.5031212940        4.2456302606       15.4953427364
  H         1.2099876460        3.6271982377       16.7256894906
  H         0.7765403607        4.4161762990       18.9687687604
  H         2.0321814833        3.3755404402       20.9244648921
  H         3.7420411226        1.6074527972       20.4058459343
  H         3.6773326698        0.5713369636       18.0378889297
  C         1.5654015394        0.7991829920       13.7272817773
  C         0.4643506389        0.1159118073       13.1238289670
  C        -0.6131264029       -0.4618215262       13.8933966269
  C        -0.5580587023       -0.3368831158       15.2917814610
  C         0.6054348787        0.1172034968       15.9035000071
  C         3.6116181619        2.1306839335       13.6521195383
  C         2.5355852449        1.5277805505       12.9563677673
  C         2.3968112625        1.9243866629       11.4709436682
  C         1.4116287533        2.8552057578       11.0569854548
  C         1.4502876914        3.4934729947        9.8448401960
  C         2.4217876221        3.1141931450        8.9517801467
  C         3.3566919655        2.0840083835        9.2294376338
  C         3.4572776457        1.5679754420       10.5605903351
  H         4.2881716611        0.9166287349       10.8842268639
  H         3.9114134449        1.6488967986        8.3259674959
  H         2.4372978286        3.6201505616        7.9660535095
  H         0.6964529324        4.2330383901        9.6353588958
  H         0.4346638489        3.0935838458       11.5690589823
  C         4.5867824402        2.9098456158       12.9708347328
  C         5.6188357667        3.5623093776       13.6199402997
  H         6.4770735006        3.9994837564       13.0471893402
  H         4.4243046821        3.0810227707       11.8806270048
  C         0.6486219235       -0.1546105290       17.3565605159
  C         1.3581390571       -1.2978011725       17.7955792662
  C         1.3164978966       -1.6859913051       19.1556831860
  C         0.4452402526       -0.9942110017       20.0959635273
  C        -0.3624625084        0.0053041124       19.5790363766
  C        -0.1733465446        0.4884037278       18.3046674755
  H        -0.7617948590        1.3403467121       17.9840616360
  H        -1.1098818962        0.4278626914       20.2829911805
  H         0.2913895381       -1.2739425930       21.1146003268
  H         1.9748096205       -2.4435398101       19.4231549419
  H         1.9258898507       -1.9831503624       17.0999188243
  C        -1.7405411807       -0.8098380998       16.0040169821
  C        -2.8429424608       -1.3991599057       15.3970666515
  C        -2.7065886219       -1.6122173702       13.9345947021
  C        -1.6317106308       -1.1409361135       13.2175696936
  H        -1.5071989700       -1.3453327328       12.1904914193
  H        -3.4348039973       -2.2745436560       13.4451251725
  H        -3.7019965022       -1.8133988296       15.9859747194
  H        -1.7739998269       -0.6593989925       17.0457304990
  C         0.5663027315       -0.2357036409       11.7111606602
  C         1.5102140346       -1.2128482504       11.2943104595
  C         1.8317521045       -1.6615719861        9.9897761045
  C         0.9841487133       -1.0441826308        8.9917535620
  C         0.0043995899       -0.1671411526        9.3448086629
  C        -0.2209470224        0.2230282929       10.7004417192
  H        -0.9254509743        1.0077513159       10.9413315150
  H        -0.6187736202        0.2047465883        8.5009523533
  H         1.0326726028       -1.3003873332        7.9824025868
  H         2.5392031901       -2.4887237751        9.9074064524
  H         2.1280122023       -1.6653424148       12.1295169648
  C         8.5492706560        0.9755180982       15.0610983125
  C         9.6008196233        1.7605499982       15.6987354400
  C        10.6964278779        2.3741509074       14.9361208682
  C        11.8958129607        2.8831851229       15.5709551052
  C        12.8010096906        3.5489345976       14.8916395065
  C         9.5644582833        2.0741976268       17.1808305106
  C         8.5501136201        2.9851486235       17.6486166476
  C         8.5837529341        3.4053079888       18.9685222264
  C         9.5556783783        2.9684519874       19.8668602834
  C        10.5606920716        2.0761717984       19.4120711489
  C        10.5181382743        1.6209593699       18.0696264461
  H        11.9664501568        2.7025260127       16.6611313276
  H        13.7151210832        3.8345624621       15.3412142184
  H         7.8804159658        3.2418955380       16.8209179291
  H         7.8100316370        4.1060787745       19.2723819146
  H         9.4982752035        3.2692459898       20.9053430296
  H        11.2911458467        1.4749425450       20.0964429571
  H        11.1717853638        0.8543669823       17.8058723513
  C         8.4227369802        1.1028489670       13.6070220460
  C         7.5791311728        0.2795615675       12.8657648257
  C         6.5751820497       -0.4179648002       13.5254918454
  C         6.5166855316       -0.4323097712       15.0142085145
  C         7.5720853782        0.1734832240       15.7857195974
  C        10.5228936830        2.4735935747       13.5173500858
  C         9.4160119060        1.8452834019       12.8706219908
  C         9.2889547101        2.2773315149       11.4412981902
  C         8.2928959768        3.1569293148       11.0362057503
  C         8.3138271526        3.7544259965        9.7677557249
  C         9.2075261873        3.3678521363        8.7920665161
  C        10.0890892918        2.3707043223        9.1616215833
  C        10.1443991169        1.8790013603       10.4126004744
  H        10.9640865216        1.1550843404       10.6366371883
  H        10.8630631943        2.2249553654        8.4021470396
  H         9.2501754167        3.8124567669        7.8185206622
  H         7.6157843734        4.5480967912        9.6870089564
  H         7.6110092164        3.5129308064       11.7980372377
  C        11.4612283078        3.2510312085       12.7671067546
  C        12.5195343148        3.8771957448       13.4956074490
  H        13.2775255057        4.4925885334       12.9696819484
  H        11.4748614042        3.3405362501       11.6529499097
  C         7.6295903954       -0.0725686017       17.2920894613
  C         8.4020114398       -1.1664889876       17.7278732119
  C         8.3803242754       -1.5400268865       19.0630253921
  C         7.5929579540       -0.8723608192       19.9893743956
  C         6.7427359760        0.1723303316       19.5659108543
  C         6.7155780920        0.5216057994       18.1904191872
  H         5.9814435522        1.1718680132       17.7514721519
  H         6.0940947519        0.6567737063       20.2101896202
  H         7.5846001793       -1.1873612481       21.0457627309
  H         9.0047262493       -2.3438201492       19.4660749297
  H         9.0341062337       -1.6943798388       17.0659728930
  C         5.4166787669       -0.9903164188       15.6919261537
  C         4.4177898574       -1.6360281210       14.9962610325
  C         4.4934507666       -1.6499405734       13.5346127119
  C         5.5528219175       -1.1332575208       12.8711450916
  H         5.5873491412       -1.2099620801       11.7469240068
  H         3.6596167382       -2.0406757036       12.9282097955
  H         3.5593078706       -2.0314813380       15.5266632721
  H         5.5006302610       -1.1129787869       16.7695598823
  C         7.7192477367       -0.0294068026       11.3548621730
  C         8.4924651610       -1.1552249379       11.0101539463
  C         8.5309461371       -1.5940982500        9.6784076032
  C         7.6332114042       -1.0544586107        8.8045632919
  C         6.8282203492        0.0504266940        9.1264453134
  C         6.8801733585        0.5892237872       10.3782981438
  H         6.3171593531        1.4437741861       10.6227747214
  H         6.2718146083        0.5791499372        8.2684427829
  H         7.5672922163       -1.3939104705        7.7487781490
  H         9.1010959614       -2.4647157433        9.3243610714
  H         8.9231240890       -1.6467424084       11.8782539967
