140

  C         3.7929010746       -0.2853529986       14.2073759080
  C         4.8495599673        0.3652747735       14.8314532017
  C         5.8711753024        1.0124615481       14.0901312763
  C         7.0899235240        1.5513025920       14.7468304262
  C         8.1416724323        2.0379591371       14.0178647729
  C         4.8274792933        0.6577925088       16.3381370139
  C         3.8828541048        1.6301521232       16.7024287125
  C         3.8336147339        2.2228791107       17.9854646466
  C         4.5599090666        1.6376475018       19.0238365911
  C         5.5098434726        0.6308219084       18.6941576307
  C         5.6455240212        0.1659703802       17.3472339278
  H         7.0913374907        1.5672624853       15.8102638919
  H         9.0844966282        2.2211246020       14.4399161961
  H         3.3931449161        2.1477139702       15.9021894728
  H         3.0781218814        2.9919561309       18.1561055183
  H         4.4928724742        2.0173011486       20.0850744975
  H         6.0466960832        0.0693849679       19.4340889772
  H         6.4056198824       -0.6274940645       17.0848193572
  C         3.7643355711       -0.3157170068       12.7084490233
  C         2.8643446185       -1.1054009261       12.0233472640
  C         1.8626913901       -1.8005644308       12.7783034144
  C         1.7196804401       -1.7101253141       14.1892272442
  C         2.7600989498       -1.0890014777       14.9059539984
  C         5.8141512689        1.0895289179       12.6719958928
  C         4.7127731690        0.5012033803       11.9745291317
  C         4.6930150747        0.8130091242       10.4639886619
  C         3.7127838977        1.7841765469       10.1462484922
  C         3.6168291200        2.2326004967        8.8756127647
  C         4.4695962441        1.7250133485        7.9022328866
  C         5.4263840532        0.7480879905        8.2020541714
  C         5.5049921265        0.2861377976        9.5131075356
  H         6.1516438973       -0.5166731310        9.7115299920
  H         6.0834392253        0.3443549837        7.4003325555
  H         4.3042355125        1.9713180832        6.8592241165
  H         2.9178412825        3.0136971323        8.6667289200
  H         3.0812201683        2.2900969984       10.8218212966
  C         6.9388189157        1.6686734018       11.9330417256
  C         8.0560336416        2.1408353472       12.5842062622
  H         8.8998259999        2.4735323813       12.0040634902
  H         6.8259109029        1.6221139119       10.8462079207
  C         3.0113859927       -1.5170598819       16.3584811425
  C         3.8826309598       -2.6025955449       16.6670667272
  C         3.7924040427       -3.1683198181       18.0076810017
  C         2.9382566184       -2.6728808849       18.9840985280
  C         2.1562034672       -1.6015735012       18.6084573337
  C         2.2152221835       -1.0219046714       17.3562170564
  H         1.4605310331       -0.2247783951       17.1848789468
  H         1.3541519856       -1.2800934164       19.3013957939
  H         2.8588963615       -3.2331019687       19.9735673545
  H         4.5369061472       -3.8829144239       18.2529814275
  H         4.7163720635       -2.9321662287       15.9847589390
  C         0.7456225394       -2.5565760341       14.8561843029
  C        -0.1231377192       -3.3032503855       14.1288655094
  C        -0.0657492268       -3.2065754308       12.7006058976
  C         0.8850530038       -2.4865821909       12.0201822970
  H         0.9154854059       -2.3734493355       10.9081342843
  H        -0.7936366154       -3.7395179907       12.0514521655
  H        -0.9452502558       -3.8811645082       14.6107353596
  H         0.6913112644       -2.7307045552       15.8841746448
  C         3.1598494724       -1.4939138577       10.5580213934
  C         4.1741566716       -2.4417989014       10.2903877875
  C         4.3898744120       -2.8949939974        8.9537900582
  C         3.6454781674       -2.4304875642        7.8778103554
  C         2.5770125626       -1.5262834791        8.1621055187
  C         2.3918659675       -1.0230424051        9.4799113437
  H         1.6158129500       -0.3067840637        9.7206238396
  H         1.9309597881       -1.2800915200        7.3290949821
  H         3.7816968706       -2.7775939913        6.8949414699
  H         5.1210652440       -3.6318557205        8.7914703901
  H         4.7200624147       -2.8376845642       11.1677843285
  C        10.9754258955       -0.1867039667       14.2036129315
  C        11.9899264783        0.5410995229       14.8531074074
  C        13.1000913079        1.0974256355       14.1654510791
  C        14.1295249327        1.8349998326       14.8110320722
  C        15.0983333201        2.4297413313       14.0629694463
  C        11.8652864082        0.9466007292       16.2989271280
  C        11.0292074234        2.0283171367       16.7616766572
  C        11.1016283461        2.4613886771       18.0890496519
  C        12.0136562713        1.8106224074       18.9897953391
  C        12.7631099454        0.7642651331       18.5598814963
  C        12.7362973563        0.3610408306       17.2130783986
  H        14.1195099035        1.9387908247       15.9226147603
  H        15.9796428129        2.9243630213       14.5606269999
  H        10.2939784097        2.5048560817       16.0630407142
  H        10.7303240076        3.4322201962       18.3751581313
  H        12.0652982410        2.1652574556       20.0068946794
  H        13.4313402687        0.3026506390       19.2979011021
  H        13.3671705571       -0.4549470804       16.8712712152
  C        10.9251103653       -0.2047067239       12.7043946359
  C         9.8167257647       -0.8903081633       12.0454638037
  C         8.7630638125       -1.4349744209       12.7879547125
  C         8.8588667874       -1.4575073273       14.2525930521
  C        10.0085193458       -1.0043769312       14.8819892597
  C        13.1395799790        0.9060654018       12.6699041340
  C        11.9986518898        0.4072201507       12.0354594251
  C        12.0079963527        0.6092180636       10.5496244629
  C        11.2153104874        1.6815268092       10.0438905902
  C        11.3534064068        2.0126134006        8.7440730695
  C        12.1885401911        1.3762169632        7.8788530723
  C        13.0126719123        0.3447284826        8.3899916443
  C        12.9215475756       -0.0112309703        9.7223382280
  H        13.6759004109       -0.6208598684       10.0854262786
  H        13.5660681617       -0.3210426691        7.7305610945
  H        12.1906298119        1.6963257923        6.8408799777
  H        10.8680910170        2.9103293650        8.4576270992
  H        10.6596025303        2.2258035177       10.8365086138
  C        14.2496717358        1.4996739733       11.9521408286
  C        15.2031358275        2.1850571500       12.6789521105
  H        15.9348068859        2.7733014317       12.1466579229
  H        14.3190927554        1.2960712343       10.8799401246
  C        10.1873181518       -1.4480482734       16.3066092541
  C        10.9493316968       -2.5326854986       16.7844217049
  C        10.9241108128       -2.9750720585       18.0800852005
  C        10.0283355616       -2.4380303836       18.9868923965
  C         9.2242212055       -1.3951404343       18.5330404271
  C         9.3327692432       -0.8835929902       17.2471062464
  H         8.6616694671       -0.0714693648       17.0024610406
  H         8.5428659834       -0.8855750092       19.1890481736
  H         9.9673151652       -2.7880681808       20.0375557935
  H        11.5974051244       -3.7785248524       18.3164807382
  H        11.6967064625       -2.9813937884       16.1867015234
  C         7.9619376713       -2.4330428329       14.9675088098
  C         6.9000456204       -2.9807078036       14.3475170658
  C         6.6966012822       -2.7453148826       12.9632009143
  C         7.6510474575       -2.0942263542       12.1984939574
  H         7.3425985480       -1.9577560510       11.1817890158
  H         5.7450892299       -3.0411733601       12.5526684370
  H         6.2284509470       -3.6413505680       14.8626390158
  H         8.1322360592       -2.4388999420       16.0273264795
  C         9.8758321449       -1.2409192127       10.5663344003
  C        10.7150761810       -2.2635409636       10.1562107822
  C        10.8211614023       -2.6843926157        8.8511804317
  C         9.9949473618       -2.1303490779        7.9329956923
  C         9.2059777531       -1.0116910811        8.2677231576
  C         9.1520137042       -0.5644729600        9.6170315556
  H         8.4725717464        0.2851279869        9.9135570476
  H         8.4894298440       -0.6669151389        7.5289108325
  H        10.0982433199       -2.4866507034        6.9121534009
  H        11.5433890319       -3.4762195582        8.6509305967
  H        11.3966681967       -2.6071919554       10.9591022713
