140

  C        11.4073513365        7.2851911493        2.1070479628
  C        10.3599614639        8.0660579645        2.8167034234
  C         9.3281302527        8.7001145139        2.1017551144
  C         8.2180418400        9.4155084733        2.6296686135
  C         7.2057670745        9.9812526542        1.9420743297
  C        10.4240691423        8.3298662928        4.2830049675
  C        11.3054554393        9.3552540973        4.7368522093
  C        11.4499641939        9.6983239346        6.0320042546
  C        10.7015065667        9.0608127955        7.0131781723
  C         9.7951819977        8.0802913148        6.5987072275
  C         9.6513153628        7.6934108142        5.2806548533
  H         8.1359203419        9.3392824038        3.7576312001
  H         6.3120821477       10.3738630963        2.5032411708
  H        11.9786266104        9.8309218962        3.9955274921
  H        12.0817106141       10.5628890269        6.2311367201
  H        10.7149545472        9.2962932340        8.1110215558
  H         9.1477488878        7.5468078527        7.3007318530
  H         8.9800920109        6.8969708124        4.9849802964
  C        11.4829273117        7.3140650376        0.6727284837
  C        12.5180519542        6.5262628613        0.0348604460
  C        13.5797083118        6.0584234891        0.7865951860
  C        13.5192770474        6.0494195629        2.2543594662
  C        12.4139447375        6.6381890394        2.8759093773
  C         9.4168610940        8.6924777521        0.6531072063
  C        10.5056560213        8.1064064793       -0.0250284125
  C        10.5351052088        8.3432867369       -1.4877875557
  C        11.3865312659        9.3598378991       -2.0075782901
  C        11.2918847250        9.6258306645       -3.3523875115
  C        10.4270203688        8.9633376714       -4.2173797852
  C         9.6560646320        7.9524417027       -3.6707593899
  C         9.6324059196        7.6578983242       -2.2722482577
  H         9.1579760476        6.7008346882       -1.9237004266
  H         9.0565600997        7.3550493464       -4.3568425583
  H        10.4411033342        9.2562595318       -5.3203795386
  H        11.8853029460       10.4381336175       -3.7785605308
  H        12.0022800671        9.8937493438       -1.3208326574
  C         8.2987385969        9.2850877763       -0.1103050257
  C         7.2672864481        9.9193334092        0.5211675378
  H         6.5049307883       10.4068869314       -0.0609023963
  H         8.4236801325        9.5744443678       -1.1760826610
  C        12.3052584559        6.1997345555        4.3214081449
  C        11.4662734801        5.0755344860        4.5126402387
  C        11.3114708694        4.5444128204        5.7592849240
  C        12.1186184547        5.0189829358        6.7620377427
  C        13.0424028565        6.0673647417        6.5799559036
  C        13.1068287586        6.6967769540        5.3446979067
  H        13.7989047487        7.5447141899        5.1921581836
  H        13.7067595275        6.3549602296        7.3811202292
  H        12.0602149252        4.4828102159        7.7226483864
  H        10.6606721366        3.7104594123        5.9875674819
  H        10.8767389311        4.7607351716        3.6533618031
  C        14.5955150665        5.3440575099        3.0065060550
  C        15.6045135767        4.7409491749        2.3331386660
  C        15.7603674714        4.8506185553        0.9295113051
  C        14.7205597833        5.4181086185        0.1753645792
  H        14.9254246992        5.5147208328       -0.8828156641
  H        16.6403090815        4.3827931736        0.4204283654
  H        16.3955311537        4.1901950144        2.8494704414
  H        14.3292462348        5.0762958756        4.0486078010
  C        12.4851224295        6.1234274549       -1.4677949999
  C        11.6476259252        5.0930155920       -1.9495153391
  C        11.5396036460        4.8922626214       -3.3328961558
  C        12.3733903277        5.5916454681       -4.2382942961
  C        13.2406719321        6.5433491030       -3.7030661290
  C        13.2852171672        6.8057937082       -2.3624567729
  H        13.9941564708        7.6806006364       -2.0053737206
  H        13.7558670663        7.2341708805       -4.3324214641
  H        12.3881482817        5.4318608192       -5.3621263205
  H        10.8728120869        4.1355872661       -3.6980212282
  H        10.9079952959        4.6258795966       -1.2991988580
  C        18.6003914750        7.2448951815        1.9000923998
  C        17.4513804985        7.7695914035        2.5398535982
  C        16.3563061390        8.3247628627        1.7754768792
  C        15.1844266993        8.8954162308        2.4097612020
  C        14.2491092753        9.6148138481        1.6849155337
  C        17.5006336931        8.0842394039        4.0515276035
  C        18.1444258381        9.2982500615        4.4879025533
  C        18.0235785538        9.7148758017        5.7727818745
  C        17.2238950089        9.0336865743        6.7330715569
  C        16.5204531614        7.9197977317        6.2827239769
  C        16.6656020043        7.4604821620        5.0026329937
  H        15.0524745563        8.5633885517        3.4384175921
  H        13.3963691943       10.0626174221        2.1789198214
  H        18.8324866056        9.7723784163        3.8069663284
  H        18.5435363627       10.6958201651        5.9736609356
  H        17.1679169135        9.4638348639        7.7365781428
  H        15.8521174499        7.3531903708        6.9463742594
  H        16.0736381543        6.5553337114        4.6375748331
  C        18.5661026360        7.2839522204        0.3581599279
  C        19.5381035406        6.6056597828       -0.3970233156
  C        20.6411457272        6.0143474195        0.2401459484
  C        20.6786329015        5.9626157257        1.6832877284
  C        19.6799950287        6.5417202409        2.4615663557
  C        16.3772306985        8.4013321032        0.3098173495
  C        17.4933487705        7.8913635103       -0.3832413859
  C        17.6034320432        8.2472265691       -1.8858327556
  C        18.3525495537        9.4272192929       -2.2653855066
  C        18.2499636743        9.8679553001       -3.5840770497
  C        17.2824005278        9.2980728957       -4.4492761424
  C        16.4856553942        8.2008509777       -4.1191849984
  C        16.7161262039        7.6256926984       -2.8441472850
  H        15.9814111809        6.8405152777       -2.4947807484
  H        15.7399523807        7.7521198362       -4.8117432788
  H        17.1346793427        9.7182273548       -5.4265396230
  H        18.8931572365       10.7049328846       -3.9507445423
  H        19.0090341840        9.8939617435       -1.5513403151
  C        15.3485054569        9.1152961037       -0.2962545114
  C        14.3545961422        9.7970960253        0.2456129761
  H        13.6974798027       10.4044618343       -0.2596400531
  H        15.4651753981        9.2491705560       -1.3454572274
  C        19.7096281511        6.1907281328        3.9323841010
  C        19.0912649620        5.0165541744        4.2768004330
  C        18.9818679467        4.5607929453        5.6049658124
  C        19.4991278530        5.4057369462        6.6193819875
  C        20.1924028412        6.6129622328        6.2680819000
  C        20.2754290098        7.0136200107        4.9380459500
  H        20.8479390909        7.8876928539        4.6956796974
  H        20.5133655007        7.2070442945        7.1187637311
  H        19.4211566628        5.0459888229        7.6376233705
  H        18.4559732691        3.5981095272        5.7743804172
  H        18.6243781676        4.4307227296        3.4967977099
  C        21.7442391557        5.2244775687        2.3351364590
  C        22.7249916944        4.6059077611        1.6083294982
  C        22.6686744277        4.6566580825        0.2114033254
  C        21.7084487715        5.3160141666       -0.4949202995
  H        21.7284826285        5.1265985855       -1.5466680551
  H        23.4595860495        4.1287118967       -0.3202308074
  H        23.4971381342        4.1977233792        2.1978477829
  H        21.7372458293        5.2024473392        3.4495396704
  C        19.5000506038        6.2725464583       -1.8704482261
  C        18.6645252993        5.2434627147       -2.3362450276
  C        18.8079748110        4.7528335582       -3.6802015155
  C        19.7141525984        5.3735062621       -4.5077391859
  C        20.4487145574        6.4435319627       -4.0736421745
  C        20.4588444493        6.8613821629       -2.7460558910
  H        21.1148422839        7.5592759009       -2.2922326313
  H        21.1871469001        6.8762813818       -4.7788355630
  H        19.7893895008        5.0014210255       -5.5325233919
  H        18.1673890419        3.9393132768       -3.9116922104
  H        17.8868999248        4.8537851205       -1.6313554875
