140

  C         5.6591669348       -0.2034927363       16.1755895909
  C         6.6919207827        0.5562524981       16.8819277456
  C         7.8148653653        1.0417114220       16.1415483807
  C         9.0122619909        1.4872334846       16.7681735046
  C        10.0671431343        1.9606006223       16.1158743526
  C         6.5710035451        0.8967565889       18.3768164673
  C         5.9384737771        2.1098454580       18.6953228358
  C         5.7759172202        2.3686676568       20.0672721531
  C         6.3426356604        1.4985503750       21.0539405519
  C         7.1960535012        0.4642268565       20.7292386003
  C         7.1981976749        0.0950571613       19.3829041634
  H         8.9817364364        1.5455288359       17.8558856132
  H        10.9040093280        2.4663556676       16.6808724266
  H         5.4512424410        2.6987135853       17.8623630964
  H         5.1319918600        3.1360860209       20.4523785687
  H         6.2870215078        1.8649259768       22.0496037588
  H         7.6326788340       -0.1874118960       21.4651782231
  H         7.7622970071       -0.8078091605       19.1374400066
  C         5.6588306029       -0.2274239843       14.6526869751
  C         4.6267576763       -1.0169871118       13.9695798791
  C         3.5624208916       -1.6597489970       14.7053060324
  C         3.5841893592       -1.6289023299       16.1402133363
  C         4.7209432384       -1.0638379264       16.8624508627
  C         7.7395582295        1.1376348057       14.6739230945
  C         6.6420470044        0.5692627818       13.9307965763
  C         6.6915637546        0.8538415073       12.4054493820
  C         5.9928114774        1.9492841001       11.8446218650
  C         6.2150927296        2.2540279651       10.5039741916
  C         6.8915557210        1.3353461061        9.6913046380
  C         7.5380099744        0.2182449564       10.3198257680
  C         7.4903153507        0.0152507137       11.6871389037
  H         7.9361038575       -0.8820450673       12.1678693984
  H         8.0563581539       -0.5544682054        9.6840295898
  H         7.0655962893        1.2693085729        8.6169050941
  H         5.8284327015        3.1823174500       10.0767924958
  H         5.4041116323        2.6775623173       12.4386542082
  C         8.8397525853        1.7260548325       13.9988013107
  C         9.9712931280        2.0484985689       14.6966488657
  H        10.7967623112        2.5908074216       14.2452117363
  H         8.8139313632        1.8782297614       12.9368109545
  C         4.6385913664       -1.3620173470       18.3566440020
  C         5.2022616969       -2.5667368593       18.7859545432
  C         5.0142654848       -3.1083596863       20.0493286692
  C         4.2392186319       -2.3604990553       20.9619175373
  C         3.6957914161       -1.1398997270       20.6151581613
  C         3.9624014559       -0.5765619318       19.2961420018
  H         3.6287667020        0.4153463433       19.0808107323
  H         2.9681352774       -0.6396311306       21.2492793510
  H         4.0313004753       -2.8349877044       21.9498079211
  H         5.4996524343       -4.0234769619       20.3430962991
  H         5.8413815379       -3.1540483134       18.1388056938
  C         2.4665827172       -2.1584826074       16.8177736180
  C         1.3479992559       -2.6135405463       16.1449155085
  C         1.3996754506       -2.6571309928       14.7141009791
  C         2.5054234800       -2.2867228648       14.0342134067
  H         2.5099943691       -2.3615201126       12.9413202016
  H         0.5182046074       -3.0782781447       14.1716466446
  H         0.5571179583       -3.0832273717       16.6525736720
  H         2.3694488802       -2.1314008228       17.8851480093
  C         4.7113195853       -1.4313488190       12.5688528585
  C         5.3921349055       -2.6228073434       12.1466370751
  C         5.2378714994       -3.0425510442       10.8643124926
  C         4.4623420430       -2.3993401783        9.8859481283
  C         3.8810020748       -1.1763196630       10.2981726399
  C         4.0812909014       -0.6820676880       11.5951702298
  H         3.6330101617        0.2618701184       11.9507179754
  H         3.3985440060       -0.4918273406        9.6382935458
  H         4.5351714153       -2.6714337927        8.8724152461
  H         5.7589446738       -3.9635541960       10.5262866589
  H         5.9194331659       -3.2249682004       12.8988856706
  C        12.7137873011       -0.4974728202       16.2435192465
  C        13.6871253638        0.1678348866       16.9446264982
  C        14.8279188601        0.6983924998       16.2463245981
  C        15.8398904734        1.4252696316       16.9776989513
  C        16.9691259724        1.9204826140       16.4023948026
  C        13.6502163546        0.4972501252       18.4193923660
  C        12.9715515936        1.6424425466       18.8686267979
  C        13.0247592902        1.9763496631       20.2653875972
  C        13.7742774755        1.1050778862       21.0978147824
  C        14.4466471477       -0.0649572011       20.6315625037
  C        14.2688919925       -0.4282903533       19.3127816749
  H        15.7344682320        1.5005169976       18.0585619776
  H        17.8038738088        2.3632407257       16.9994099945
  H        12.4555459759        2.2871035133       18.1239982165
  H        12.4600930373        2.7882733736       20.7370348470
  H        13.8044459665        1.3471550573       22.1572972448
  H        14.7715282557       -0.7576918912       21.3761949834
  H        14.6780207024       -1.3472582932       18.9001090149
  C        12.7123964704       -0.3166445572       14.7677801707
  C        11.7391153385       -1.1201039192       14.0347379516
  C        10.5999350118       -1.6762704400       14.6436728602
  C        10.5247855890       -1.8193967526       16.0874791716
  C        11.6404215390       -1.2678944449       16.8482421434
  C        14.8438428063        0.8521277389       14.8044778892
  C        13.6790243354        0.4806343649       14.0317087875
  C        13.6219239008        0.7686290947       12.5339212201
  C        12.7237768985        1.6926079359       12.0302994291
  C        12.8356309623        2.2418055174       10.7301151246
  C        13.6726155071        1.6316316052        9.7529087027
  C        14.5133023088        0.6281261662       10.2101823584
  C        14.4705773086        0.2342254437       11.5932438889
  H        15.1851858844       -0.5221483764       11.9589354201
  H        15.2245090271        0.0551993319        9.5601819146
  H        13.5717693722        1.8453574346        8.7057246754
  H        12.2601641542        3.0744967479       10.3674800697
  H        11.9936134861        2.1265093837       12.7041411323
  C        16.0872877744        1.2573385722       14.2300526625
  C        17.1324939598        1.7532066829       14.9944254924
  H        18.0657503630        2.0744633724       14.5437746704
  H        16.0966864079        1.4497506748       13.1991471768
  C        11.6456002851       -1.6804570979       18.2637431904
  C        12.3327238031       -2.8128204822       18.6388914405
  C        12.2248682232       -3.1991943488       20.0131186937
  C        11.5457016238       -2.4246281103       20.9195427814
  C        10.8864193944       -1.2290875898       20.5334005944
  C        10.9709558870       -0.8885802072       19.2211053277
  H        10.6419149436        0.0693207211       18.8421712832
  H        10.3500064816       -0.5707636366       21.2681194495
  H        11.5114351630       -2.8056528696       21.9662439776
  H        12.7792615515       -4.0796521678       20.3004925234
  H        13.0210075562       -3.2625808172       17.8983473250
  C         9.4154673532       -2.4442531561       16.7460385844
  C         8.3244060165       -2.8506628147       16.0698202078
  C         8.3386663944       -2.7197953964       14.6122241859
  C         9.4338158861       -2.2297528892       13.9324992535
  H         9.4494031031       -2.1633721610       12.8393856703
  H         7.4214601513       -2.9456928367       14.0750911419
  H         7.4206501272       -3.2604277673       16.5881978172
  H         9.5007705209       -2.5824256953       17.8282195795
  C        11.8016956790       -1.5507854755       12.5541566435
  C        12.6959283807       -2.5902622597       12.2895909267
  C        12.7803853747       -3.2075595111       11.0102544473
  C        11.8184270262       -2.7957614076       10.0222142303
  C        10.9670814331       -1.6952065664       10.2769919668
  C        11.0134503974       -1.0430749371       11.5117562086
  H        10.4180203446       -0.1216426700       11.7233509954
  H        10.3195974558       -1.2600185243        9.5117578380
  H        11.9493809729       -3.1987447992        9.0278955793
  H        13.5105384646       -4.0110762075       10.9276134044
  H        13.2578462447       -2.9204974343       13.1396223541
