140

  C        12.7044434861        6.8738014885        2.5105576318
  C        11.6480118091        7.6540009694        3.1695565088
  C        10.5123831227        8.1463852877        2.4925563633
  C         9.3935852335        8.6204436052        3.2418242472
  C         8.3743680788        9.2605254260        2.5645460307
  C        11.6487246177        8.0009727357        4.6086258615
  C        12.2840840936        9.1734214518        5.1059302404
  C        12.2582093163        9.5895938463        6.4936937995
  C        11.4913708166        8.7460152822        7.3818991465
  C        10.8363514311        7.6031292294        6.9200997851
  C        10.8782329254        7.2483772160        5.5759372017
  H         9.3125823645        8.3851514484        4.2918247227
  H         7.5745606799        9.6903099418        3.1221540079
  H        13.0187452204        9.6982671688        4.4683720998
  H        12.7324718316       10.5412566896        6.8000781955
  H        11.4784031856        8.9792262341        8.4350342808
  H        10.3695409554        6.8770708808        7.5838045723
  H        10.4139136108        6.3519747878        5.1606040466
  C        12.5958328760        6.8595595585        1.0228062725
  C        13.6396866111        6.1751698960        0.3190424282
  C        14.7420997284        5.6425678519        1.0186999712
  C        14.7875291041        5.6681103031        2.4649554919
  C        13.7110877784        6.2138888507        3.2314150980
  C        10.4842769072        8.2129111140        1.0304312378
  C        11.5737033370        7.5977263433        0.3605931492
  C        11.8065135905        8.0218793756       -1.0997017535
  C        12.6747825360        9.0712920882       -1.3704669955
  C        12.7864523781        9.5814684853       -2.6962736054
  C        12.0396805511        8.8972912981       -3.7278437431
  C        11.1022170042        7.9305144817       -3.4318389493
  C        10.9210509529        7.5169100377       -2.0937917829
  H        10.1882670593        6.7387021767       -1.8759959249
  H        10.4528770781        7.4040631476       -4.2179078102
  H        12.0358412592        9.4598029398       -4.6717485733
  H        13.4500146364       10.3481805260       -3.0993935985
  H        13.2457902105        9.5330663858       -0.5525760734
  C         9.4658666633        8.9938857468        0.3623714545
  C         8.4003869294        9.4687281243        1.1698961448
  H         7.5915210558        9.9812724899        0.6895904611
  H         9.6833462519        9.1179973201       -0.6960270841
  C        13.6069083041        5.9604258361        4.6931817384
  C        12.7040718851        5.0381607117        5.2555191367
  C        12.6250048560        4.6898800525        6.5985358909
  C        13.5737396915        5.2456498820        7.4487114741
  C        14.4525076407        6.1858179287        6.9361173545
  C        14.4240240088        6.6014107130        5.6122238627
  H        15.1136045036        7.3716025101        5.2763693105
  H        15.1993591522        6.6104108919        7.6744790252
  H        13.6181156346        5.0987672505        8.5384811464
  H        11.7838064665        3.9848163620        6.8104309908
  H        11.9972238614        4.5095257142        4.5592218200
  C        15.8948377123        4.9412595879        3.1297377122
  C        16.7876361644        4.2174297035        2.3968688804
  C        16.7086950765        4.0443680507        0.9846511372
  C        15.8017013077        4.8968302663        0.2790028406
  H        15.7704689238        4.8398567273       -0.8278051018
  H        17.4964363863        3.5344229486        0.4269739069
  H        17.5123689895        3.5997972275        2.9529436888
  H        16.0806741590        5.1280609192        4.2102048437
  C        13.4753708507        5.7997158945       -1.0694054915
  C        12.6367741165        4.7804768510       -1.5419194130
  C        12.6379662661        4.3308658022       -2.8612275577
  C        13.4898561692        4.9221319602       -3.7539420067
  C        14.3623945733        5.9328010509       -3.3268088071
  C        14.3921520309        6.3615751180       -1.9907392118
  H        15.0367716460        7.2463564242       -1.7575201340
  H        15.1463500748        6.3499873186       -4.0271021017
  H        13.4048850024        4.7920182665       -4.8217015628
  H        12.0176841061        3.4613314674       -3.1695758311
  H        11.9916112540        4.2561851894       -0.8502287234
  C        19.8105602630        7.1358171719        2.6466027172
  C        18.8195229243        7.7938237850        3.4462385198
  C        17.6642041119        8.3268954289        2.6743234237
  C        16.5580994322        8.9833904717        3.3326968528
  C        15.4276053461        9.3876385879        2.6202278682
  C        18.9328379674        8.2099078514        4.8398765083
  C        19.6296253217        9.3881043933        5.2752006871
  C        19.5090703925        9.7781630819        6.5943280119
  C        18.7636464132        9.0759401930        7.5549272947
  C        18.1278299473        7.8759274661        7.1389047875
  C        18.2282868200        7.5045531354        5.7697523379
  H        16.5390809552        9.1360656893        4.4011630618
  H        14.5773689352        9.7207166873        3.1621114625
  H        20.2607805237        9.8484995401        4.5105622015
  H        20.0603084998       10.6752989454        6.8628824074
  H        18.6998897819        9.3759315243        8.5922867594
  H        17.3727374602        7.3295300070        7.7442199864
  H        17.7656060186        6.5674194036        5.4657242811
  C        19.7512733629        7.1722984275        1.1574495520
  C        20.7988668640        6.3696055101        0.4128294873
  C        21.8362459095        5.7428647106        1.1585661565
  C        21.8427479795        5.6672274435        2.5834678841
  C        20.7864362400        6.3037619717        3.2610564497
  C        17.5974388396        8.2847866161        1.2061654986
  C        18.7136135507        7.7099861520        0.4759250315
  C        18.8473444521        8.1063647528       -0.9448562160
  C        19.6711077990        9.2093069082       -1.2301369479
  C        19.7059789429        9.7246637171       -2.5353024692
  C        18.8357241168        9.1619797277       -3.5075656446
  C        17.9315551542        8.1389071359       -3.2100741105
  C        18.0000250383        7.5904013955       -1.8727616288
  H        17.3379787613        6.7453651494       -1.6506773395
  H        17.1920841356        7.8200366084       -3.9179204434
  H        18.8531427251        9.6573724757       -4.5218318000
  H        20.4661440758       10.5296485662       -2.7686546035
  H        20.3872433970        9.7367807576       -0.6215337089
  C        16.4601047221        8.8734337337        0.4767523753
  C        15.3964654153        9.3999636415        1.2154607474
  H        14.5471279883        9.9042980603        0.8926918630
  H        16.3865002646        8.7483302083       -0.5827282504
  C        20.6288861920        6.0104284479        4.7121350229
  C        19.9078816703        4.8775420419        5.1011830419
  C        20.0709904952        4.3344330629        6.3713719902
  C        20.7351960044        5.0485430138        7.3339818743
  C        21.4938128936        6.2276070381        6.9863985583
  C        21.4575167212        6.6536179949        5.6366913014
  H        21.9178445810        7.5678024428        5.3910893912
  H        22.2027610895        6.6944545144        7.6656711395
  H        20.8548715958        4.5412664617        8.2992332392
  H        19.5348419961        3.4178819284        6.4973674327
  H        19.3373867057        4.3844938935        4.3353726743
  C        22.8602751480        4.8711769498        3.2146812403
  C        23.7843045255        4.2130627711        2.4717086499
  C        23.9237137233        4.3641835652        1.0839998486
  C        22.9330126857        5.0726321383        0.5015709213
  H        22.9209557578        5.0603236873       -0.5738626846
  H        24.6921742116        3.9269677410        0.4969869976
  H        24.5547618873        3.6586653364        2.9484083331
  H        22.8760358821        4.6792274961        4.2682200546
  C        20.5714543450        5.9069828825       -1.0005669514
  C        19.4989257255        5.0415929426       -1.1502162133
  C        19.1249850547        4.3665638462       -2.3057952746
  C        19.7549847916        4.7033311486       -3.5324150821
  C        20.9411303442        5.5031232177       -3.3930753136
  C        21.2875135523        6.1288708438       -2.1948928909
  H        22.1330073416        6.8715539271       -2.2004235084
  H        21.3327691264        5.8638971672       -4.3609384753
  H        19.5332820526        4.3952538843       -4.5260271359
  H        18.2935764760        3.7027588925       -2.3060703565
  H        18.9182401746        4.8420881221       -0.2978413203
