140

  C         3.5186685753        0.2663348776       14.6155206805
  C         4.4813404773        0.9507117930       15.4215136615
  C         5.6853059839        1.2450876103       14.7208834825
  C         6.8332036543        1.8815575814       15.5010719650
  C         7.8764438629        2.3869527089       14.8338292326
  C         4.2922199052        1.4329424756       16.8023748881
  C         3.4390951164        2.5380598975       17.0299665508
  C         3.3047136231        3.0990849383       18.3534795704
  C         4.0494834048        2.6239655444       19.3825865923
  C         4.9345278079        1.5104166565       19.1903988340
  C         5.0069126299        0.9488780156       17.9250804413
  H         6.7808059172        1.8116019708       16.5903132348
  H         8.7584431387        2.6991188145       15.3582052870
  H         2.9401628058        2.9448132893       16.1548020591
  H         2.5316410390        3.8277580865       18.5862711663
  H         3.9104746458        3.1125239297       20.3208169669
  H         5.4615721653        1.0407558078       20.0160862448
  H         5.7151692504        0.2208310912       17.7218202533
  C         3.6042810387        0.3014278693       13.1171289248
  C         2.6250642243       -0.3651700515       12.3541357667
  C         1.5364869988       -0.9711095738       12.9689917556
  C         1.3818328096       -0.8747934225       14.4526596055
  C         2.4350372093       -0.3658821509       15.2115528638
  C         5.7708251527        1.3530438548       13.3057591590
  C         4.7221929537        0.9831127200       12.5263535555
  C         4.7097925719        1.2943169801       11.0660160717
  C         4.0893029845        2.4390579348       10.5641570828
  C         4.1224489339        2.7045973221        9.2351973001
  C         4.7642553252        1.8635210001        8.3417617561
  C         5.4239688002        0.7376110536        8.7597906307
  C         5.4709218201        0.4848838345       10.1539847791
  H         5.9188547639       -0.4216629713       10.4904102736
  H         5.9260593858        0.0093280875        8.1186577515
  H         4.9402451523        2.2435027658        7.3644994011
  H         3.5683562831        3.5994666173        8.9890236551
  H         3.4296841561        3.0415006910       11.1592154285
  C         6.8537974256        2.0315559846       12.6337321698
  C         7.9178491378        2.4557099041       13.3869628487
  H         8.8077131667        2.8420024421       12.8679619995
  H         7.0192712885        2.0125240152       11.5539772722
  C         2.4411332831       -0.7277157949       16.6562040139
  C         3.1809356835       -1.8124391239       17.0728131267
  C         3.2661776299       -2.1930518487       18.4119579549
  C         2.5885719338       -1.4733935528       19.3866578364
  C         1.7396452418       -0.4302765001       18.9565590419
  C         1.6929296604       -0.0438225167       17.6636302420
  H         1.0950452539        0.7820343809       17.3496831645
  H         1.0609153071       -0.0048971106       19.7392258088
  H         2.6315777574       -1.7856913340       20.3977972889
  H         3.9539844943       -3.0231807533       18.6164372640
  H         3.7707005290       -2.3308268584       16.2732837733
  C         0.3289222504       -1.6511885311       14.9918771223
  C        -0.6251172272       -2.2381490364       14.1938181019
  C        -0.6352265128       -2.1191517892       12.8341118755
  C         0.4825985240       -1.5481657074       12.2499587149
  H         0.5458319922       -1.5073019048       11.1545433137
  H        -1.5067916057       -2.5361766273       12.2289770664
  H        -1.3411144520       -2.8683901461       14.7168405894
  H         0.3349598875       -1.9207095063       16.0471752835
  C         2.8219795429       -0.6867686906       10.8879530417
  C         3.4733875867       -1.9313929521       10.7049288032
  C         3.5932900537       -2.5059441366        9.4540297970
  C         3.0306275252       -1.8745725470        8.3459027790
  C         2.2980720674       -0.6644945248        8.5337738184
  C         2.2359535843       -0.0673478951        9.7814029318
  H         1.5679196349        0.8302302093        9.8182308255
  H         1.6586385532       -0.2847629297        7.6964731984
  H         2.9823506682       -2.4813946684        7.4181096762
  H         4.0185249750       -3.4785752693        9.3745200986
  H         3.8933220834       -2.3818247341       11.5678484480
  C        10.5725789259        0.0286143325       14.6991627923
  C        11.5934748710        0.7353563718       15.4302634692
  C        12.7274782139        1.3067688457       14.7453736226
  C        13.7745502411        1.8859984000       15.4851994836
  C        14.7367172986        2.6051919625       14.8151693038
  C        11.5057939551        0.8205796202       16.8934128943
  C        11.0026119371        2.0549305645       17.2669559358
  C        11.2462655187        2.5239451146       18.5612837137
  C        12.0699621297        1.8530875827       19.4772148686
  C        12.6616763805        0.6158329324       19.0703636693
  C        12.3141593428        0.0821298379       17.7944053154
  H        13.7398703119        2.0265424679       16.5845703867
  H        15.4215061494        3.2338515452       15.3992765875
  H        10.4641370165        2.6918980796       16.5936652053
  H        10.8638429081        3.5443637117       18.7253243471
  H        12.3761439829        2.3021806310       20.4203358103
  H        13.3364837690        0.2069702795       19.8612302725
  H        12.9111403010       -0.7485588076       17.4403264843
  C        10.5890725848        0.1420982622       13.2071362848
  C         9.6636377931       -0.5296081094       12.4244211779
  C         8.5781582531       -1.2152979828       13.0807621243
  C         8.5522001481       -1.3407814021       14.5159407109
  C         9.5281817382       -0.6765447661       15.3236186960
  C        12.7538021349        1.3737718741       13.2733386011
  C        11.6461878681        0.9209352994       12.5656541321
  C        11.7123001649        1.1901559533       11.0704273012
  C        11.0297548923        2.3309452965       10.5841458165
  C        11.3268736674        2.8208490201        9.2840930910
  C        12.1756533355        2.0146245280        8.4788956740
  C        12.7302838665        0.8433439155        8.9313154895
  C        12.5434390849        0.4638198098       10.2450274750
  H        13.2263320575       -0.3090739610       10.6936653800
  H        13.3270857534        0.1648886525        8.3300359435
  H        12.4660269002        2.4307705657        7.4940784507
  H        11.0302096683        3.7730504708        8.8612358207
  H        10.5827195471        3.0498247613       11.3001724036
  C        13.7384273901        2.1426358414       12.6320747993
  C        14.7732058282        2.6714784404       13.3807272907
  H        15.5351291110        3.2503086940       12.8452216740
  H        13.7611476497        2.2752675460       11.5612638056
  C         9.4135287053       -1.0745427119       16.7428889920
  C        10.0285516983       -2.2424070323       17.1516019173
  C         9.8486542322       -2.7175948069       18.4819768368
  C         9.0195158564       -1.9980975409       19.3571014729
  C         8.4733130928       -0.7664576203       18.9431614666
  C         8.7166617528       -0.2955529729       17.6681681577
  H         8.3455811174        0.6802329165       17.3233379189
  H         7.8059758815       -0.2082443812       19.6179042801
  H         8.7994755153       -2.3746615042       20.3609395388
  H        10.2833442539       -3.6830824817       18.7153914748
  H        10.6169070095       -2.7624056173       16.3747611928
  C         7.4919521719       -2.1219551557       15.1233000603
  C         6.4768320140       -2.6997126628       14.3598770361
  C         6.5184820502       -2.5419204234       12.9117701341
  C         7.5692780902       -1.8433843147       12.3777655091
  H         7.6984686935       -1.8638348545       11.3264100558
  H         5.7387508526       -2.8988950296       12.2517270501
  H         5.6290646178       -3.2066920776       14.8290544559
  H         7.3421399841       -2.1265242197       16.1682922343
  C         9.7616603993       -0.7458217474       10.9678806035
  C        10.5215367728       -1.8865290698       10.5664561617
  C        10.5482524204       -2.2726219912        9.2077218179
  C         9.7700610927       -1.6008659484        8.2232841383
  C         9.0867142102       -0.4034247517        8.6588161241
  C         9.0538404057       -0.0419582477       10.0167802466
  H         8.4714551560        0.8549018339       10.2525959627
  H         8.4643273387        0.1665191061        8.0176027800
  H         9.8312025930       -1.8311897900        7.1699369224
  H        11.2060934934       -3.0843247977        8.9139856995
  H        11.2258346021       -2.4122939605       11.1759308359
