140

  C        11.1741190724        7.0639836744        0.6697296746
  C        10.1485739265        7.7991262566        1.3413088753
  C         9.0408105293        8.2894314618        0.6151974625
  C         8.0186351400        9.0653872578        1.3385018541
  C         6.9437348890        9.6248211459        0.6416698890
  C        10.1542039045        8.0665867704        2.8366822038
  C        10.9433842350        9.0700209154        3.4759307151
  C        10.9323453084        9.2620774202        4.8473014792
  C        10.0423977802        8.5178588069        5.6057779407
  C         9.1854822859        7.5882698918        5.0080921297
  C         9.2675030612        7.3031592751        3.6374062000
  H         8.0622473087        9.1719568984        2.4089522892
  H         6.2282675460       10.1879643187        1.2414573469
  H        11.5792837651        9.5934323606        2.8533443093
  H        11.6575879483       10.0152020701        5.2358307584
  H         9.9152246743        8.7787549230        6.6067674025
  H         8.4110646338        7.1370588738        5.5623055946
  H         8.6294332993        6.6347049447        3.0978922920
  C        11.1102355175        6.8945957104       -0.8522299692
  C        12.1243972983        6.1595780382       -1.5187361878
  C        13.1744085348        5.5731901973       -0.7868333320
  C        13.3365593787        5.7202756534        0.6342414693
  C        12.2981985738        6.4228653552        1.3630258210
  C         8.9590471949        8.1289036842       -0.8603510050
  C        10.0194967424        7.5187598641       -1.5561797754
  C        10.1263946686        7.8290626072       -3.0316300365
  C        10.9317955785        8.9107888738       -3.4439318358
  C        10.8299216887        9.3562595956       -4.8027420421
  C        10.0070251610        8.7355920948       -5.7485631456
  C         9.3886414529        7.5127894503       -5.3717729587
  C         9.3935435469        7.0972470963       -4.0296705440
  H         8.7868395668        6.2700658865       -3.6590522014
  H         8.8059733469        6.9206243827       -6.0173246449
  H         9.9230231937        8.9838521617       -6.7784005322
  H        11.4952717156       10.2225120738       -5.1704465487
  H        11.7620258748        9.3378157113       -2.8354752397
  C         7.8001664709        8.7694584731       -1.4687817370
  C         6.8211517651        9.3675958829       -0.7189789410
  H         5.9521797767        9.8510930493       -1.1860166071
  H         7.6756780194        8.7937428259       -2.5732397892
  C        12.2989048186        6.1291819102        2.8737266927
  C        11.6547418290        4.9423133175        3.3056852666
  C        11.7886598925        4.5225968229        4.5929480384
  C        12.6255354496        5.0973092006        5.5107249719
  C        13.2794364637        6.2680321094        5.0562552420
  C        13.0538935375        6.8383044030        3.8106074616
  H        13.5668013422        7.7349079513        3.4732483047
  H        13.9341999333        6.8917387071        5.6555794430
  H        12.7560117124        4.6654735189        6.4910128263
  H        11.2937673325        3.5734819534        4.8235248550
  H        10.9265227296        4.4429204661        2.6953309982
  C        14.4390283378        4.9238782979        1.2839937043
  C        15.2309144772        4.1706007540        0.4689378232
  C        15.1601318027        4.1856616639       -0.9594855646
  C        14.2022196104        4.9001762682       -1.5177337264
  H        14.2700422951        5.1300034089       -2.5913295388
  H        15.9070821537        3.6854395926       -1.5318834661
  H        16.0819141453        3.6367329749        0.9829850921
  H        14.4883155965        4.7678065706        2.2901132407
  C        12.0693985885        5.8135489004       -3.0126666235
  C        11.3966400004        4.6300837627       -3.3761984887
  C        11.4056947896        4.2091329248       -4.7826881623
  C        12.3051499991        4.8378755644       -5.6975621308
  C        13.1031704875        5.8981613420       -5.2280762406
  C        12.9065595541        6.4328772295       -3.9758759262
  H        13.4032157673        7.3776840621       -3.6129166564
  H        13.7629942492        6.4898087714       -5.8454142428
  H        12.3196665239        4.4694879049       -6.6987887149
  H        10.6780851916        3.3813379069       -4.9314053947
  H        10.8685418087        4.0061107520       -2.6752006492
  C        18.3632390707        6.6839515129        0.6632077666
  C        17.4101967735        7.4199711933        1.3663597648
  C        16.2673093264        7.8764140347        0.7042132004
  C        15.1492222303        8.4845825990        1.4752333380
  C        14.1009444002        9.1285346616        0.8230638530
  C        17.5668913661        7.7143300681        2.8122004906
  C        18.4814700232        8.7181687749        3.2117422725
  C        18.6211549428        9.0518459080        4.5177256149
  C        17.8147645952        8.5214773188        5.5254628586
  C        16.8287550031        7.5892193737        5.1007223714
  C        16.7460492170        7.0739433569        3.7832862939
  H        15.1300829931        8.4846174715        2.5938747099
  H        13.2929717416        9.6526151075        1.3819081781
  H        19.1492870068        9.1368815729        2.4781244903
  H        19.4604198468        9.7014438531        4.8269912745
  H        17.8100218378        8.9403567782        6.5243134542
  H        16.1817291112        7.2012390303        5.9178815239
  H        16.0116778450        6.3302592748        3.4637637927
  C        18.2210665940        6.5688944268       -0.8098157291
  C        19.2845398410        5.9076317268       -1.4979834210
  C        20.3896640641        5.3510244918       -0.8656327542
  C        20.5333448859        5.5074294343        0.5965865553
  C        19.4363341067        6.1010577211        1.3384589215
  C        16.2439889879        7.9902044904       -0.7212758098
  C        17.2801738681        7.3315951182       -1.5090920794
  C        17.4416232855        7.7258248375       -2.9316536425
  C        18.3833955768        8.7116160445       -3.2225639398
  C        18.5288115657        9.1949809197       -4.5654805525
  C        17.6521126071        8.8340640631       -5.5929626921
  C        16.6657823662        7.8314815961       -5.2901255974
  C        16.5775062713        7.3045965207       -4.0039162733
  H        15.8942751725        6.4770140556       -3.7170221213
  H        16.0568517460        7.3411447130       -6.1851659865
  H        17.7851704775        9.1657454372       -6.6102594528
  H        19.2886375667        9.9683067325       -4.8289858629
  H        19.0473404914        9.0545041135       -2.4567129939
  C        15.1875401420        8.7645460443       -1.3390965437
  C        14.1395933703        9.2563003428       -0.6122483827
  H        13.3398499302        9.7613888126       -1.0750913300
  H        15.1899215600        8.9362035256       -2.4341326569
  C        19.4541638966        5.7139383215        2.7793844573
  C        18.8287927223        4.4884780687        3.0555229327
  C        18.7675881115        3.9083282781        4.3057971916
  C        19.3027836295        4.5978692086        5.3430773793
  C        20.1143977910        5.7239321359        5.0779689127
  C        20.2913790628        6.2601803969        3.7949745265
  H        20.9652075572        7.1093917568        3.5034301922
  H        20.6719107000        6.2960306602        5.7993186434
  H        19.2826897141        4.2048049382        6.3702872114
  H        18.2149493304        2.9945495668        4.5604744819
  H        18.3342941438        4.0566009602        2.2112969052
  C        21.7345656173        4.9566118182        1.1690380019
  C        22.7446845203        4.2876162708        0.5389463139
  C        22.6154895131        4.2216249996       -0.8809439085
  C        21.5063123587        4.6810379332       -1.5310706536
  H        21.4759277889        4.6319522416       -2.6185606049
  H        23.3587856723        3.7039079567       -1.4424004641
  H        23.5579871945        3.8222775529        1.1162464053
  H        21.7911740001        4.9899395755        2.2330775897
  C        19.2157257991        5.5882075595       -2.9961812099
  C        18.3346651815        4.6341228468       -3.5214103728
  C        18.4893813118        4.1548749741       -4.7983851899
  C        19.4722027319        4.6603114020       -5.7004997677
  C        20.3326214252        5.6330292167       -5.1710949584
  C        20.1924277734        6.1142169191       -3.8698820372
  H        20.7436982986        7.0054958272       -3.5283747325
  H        21.2110632991        6.0164356255       -5.7099925008
  H        19.5188273918        4.2674967444       -6.7033055660
  H        17.8318643589        3.3326842590       -5.0818901304
  H        17.6172542270        4.2300875650       -2.8302253657
