140

  C         3.4073076251        0.3237622500       14.5607036782
  C         4.4561584589        0.9116802646       15.3205274111
  C         5.6354595270        1.4810565352       14.6678912310
  C         6.7498833548        1.9924708252       15.4392887329
  C         7.8609670091        2.5472299661       14.8330352010
  C         4.3346324416        1.2041366619       16.7777228852
  C         3.5184425842        2.3001609632       17.0960452270
  C         3.4294231581        2.7631639212       18.4557368659
  C         4.3350986559        2.2737099274       19.4402100089
  C         5.2079209683        1.2253878366       19.0778315504
  C         5.1646284920        0.7003643845       17.7773725379
  H         6.7682978707        1.9779462221       16.5311652887
  H         8.7073422303        2.9312240845       15.3706422014
  H         2.8331772676        2.6867620834       16.3290437692
  H         2.8555612572        3.6816640668       18.6862736848
  H         4.2961234792        2.6433268447       20.4616449399
  H         5.8759742467        0.7083579212       19.8074754995
  H         5.8501013467       -0.0962132587       17.5361239529
  C         3.4914113736        0.3895851064       13.1296027558
  C         2.3952129497       -0.2759494100       12.4443310915
  C         1.3416936666       -0.9697748177       13.1236235326
  C         1.3137213650       -1.0373852565       14.5856855944
  C         2.3705795578       -0.4172236781       15.2764995598
  C         5.6939543942        1.5906903475       13.2472973657
  C         4.5674492522        1.2078767139       12.5456687046
  C         4.4921019396        1.4946986842       11.0651776869
  C         3.4513388787        2.3185326371       10.5548284993
  C         3.4188118242        2.6409140575        9.1862971391
  C         4.4032320498        2.1222048599        8.3319059330
  C         5.2457420831        1.1231633048        8.7842585205
  C         5.4447051434        0.9558967809       10.1487998376
  H         6.2471417314        0.2188108451       10.4539574042
  H         5.7381709386        0.4832750050        8.0789583243
  H         4.3411879343        2.3786063154        7.2895083035
  H         2.7520236488        3.4356755038        8.7902562064
  H         2.6765373316        2.5516378963       11.3095856475
  C         6.8036704128        2.2928232738       12.6208757983
  C         7.8132711043        2.8087110607       13.4262863737
  H         8.6628369422        3.2645477165       12.9490113920
  H         6.9743985997        2.3875239566       11.5305659211
  C         2.4440679989       -0.7618180984       16.7269931546
  C         3.2395754894       -1.8693852168       17.0672643189
  C         3.3459675136       -2.2309646194       18.4238748185
  C         2.6360523859       -1.5824779305       19.4456378633
  C         1.7368057198       -0.5893127637       19.1021576474
  C         1.6855505307       -0.1397241725       17.7385080424
  H         0.9494726980        0.6423785028       17.4393038006
  H         1.1654484243       -0.1650306206       19.9153243194
  H         2.8745588219       -1.9109439923       20.4272417963
  H         3.9589238535       -3.1224095795       18.7693396568
  H         3.6944203213       -2.4839996160       16.3169519525
  C         0.1822505045       -1.7130856113       15.2469543630
  C        -0.8686681401       -2.2906412228       14.5578324052
  C        -0.8342829826       -2.1959724056       13.0940731432
  C         0.2373835980       -1.6011515607       12.4046173543
  H         0.0961987499       -1.5539352470       11.2986516709
  H        -1.6555592795       -2.4720508930       12.4747767013
  H        -1.6609303761       -2.8198515704       15.1336519600
  H         0.0862120749       -1.5944040010       16.3279800536
  C         2.6565643937       -0.7735611091       11.0292727277
  C         3.5105403018       -1.9555501273       11.0020622796
  C         3.6612032281       -2.7103675293        9.8147792819
  C         3.1007085871       -2.3017856901        8.6255774288
  C         2.2876229868       -1.1366375778        8.5712423402
  C         2.1009293964       -0.3926152407        9.7686374243
  H         1.5703790426        0.5281050120        9.7397104061
  H         1.9032820422       -0.7741193642        7.6603899053
  H         3.5059773967       -2.7282031606        7.7061103438
  H         4.4964101001       -3.4208762718        9.7262161007
  H         3.9539445745       -2.1177988590       12.0228091065
  C        10.6573674295        0.0510787775       14.7120348750
  C        11.6808591600        0.6956879587       15.4316822123
  C        12.8457038766        1.2539036114       14.6978483233
  C        14.0412211313        1.7873819583       15.3180981502
  C        15.0579997571        2.3609910831       14.5780313214
  C        11.7008656936        0.9160169549       16.8812715861
  C        10.7889338830        1.7980810719       17.4534413767
  C        10.8058449466        2.1424169667       18.8089996112
  C        11.8683911331        1.7767884520       19.6090045790
  C        12.7845947642        0.8613411754       19.0698707160
  C        12.6837298983        0.4469423879       17.7842422730
  H        14.1955326832        1.7090736191       16.4076274265
  H        16.0337296281        2.6540012169       15.0123143221
  H         9.9403608414        2.0853063332       16.8342804434
  H         9.9826605035        2.7013813945       19.2109918761
  H        11.9719645153        2.1729727588       20.6058962355
  H        13.5432458331        0.4794579968       19.7409910099
  H        13.4444407754       -0.2989744770       17.4582982416
  C        10.6106144283        0.1408437125       13.2289998201
  C         9.6872275601       -0.6153025661       12.4645925729
  C         8.6822170879       -1.3381829864       13.0718874715
  C         8.6130524006       -1.3359609511       14.5012536805
  C         9.5906702507       -0.6468147027       15.2979014681
  C        12.7696050061        1.3542860316       13.2626173230
  C        11.6744661024        0.8224201790       12.5127163637
  C        11.6442104473        1.1010531310       11.0677244884
  C        10.8573444861        2.1600735654       10.6481029096
  C        10.9253373316        2.6253281501        9.3519325532
  C        11.7211637172        1.9086752530        8.4212888496
  C        12.4971011422        0.8116702957        8.8142600563
  C        12.4452497422        0.4024237666       10.1492998860
  H        13.0170661621       -0.5200318743       10.4711337243
  H        13.1882633600        0.3573917645        8.1245021317
  H        11.8017777989        2.4224267482        7.4300000604
  H        10.2988336651        3.4435669706        9.0235535035
  H        10.1507962988        2.6158743649       11.2971375309
  C        13.8784937266        1.9790955109       12.4943059805
  C        14.9927578419        2.4929825079       13.1420162295
  H        15.7875968122        2.8923755352       12.5040340614
  H        13.7464021847        2.1363927414       11.4372865305
  C         9.5460155995       -0.9545733224       16.7404945301
  C        10.3812827714       -2.0875661586       17.1507089710
  C        10.3332540648       -2.5547634834       18.4249786482
  C         9.3380919734       -2.0027799763       19.3231001311
  C         8.5279582862       -0.9738121894       18.9399204373
  C         8.7654344209       -0.3405535288       17.6943280400
  H         8.2225082849        0.5910096312       17.4913022300
  H         7.7104880609       -0.7173886828       19.5953339170
  H         9.2487238118       -2.4851076711       20.2973956551
  H        11.0414855869       -3.3392243444       18.7363557568
  H        11.0530294564       -2.6848748359       16.5221735594
  C         7.4863294025       -1.9303245323       15.1341371875
  C         6.5290785348       -2.5908725054       14.3299309730
  C         6.7201661193       -2.7588385211       12.9780342310
  C         7.7796659300       -2.2030724386       12.3300976396
  H         7.9362170577       -2.3877891425       11.2799338937
  H         6.1356822005       -3.4706955045       12.4254183365
  H         5.5917930228       -3.0112647390       14.7638238444
  H         7.3172224146       -1.9222617128       16.1937098894
  C         9.7662075064       -0.8941325864       10.9729829573
  C        10.5288413824       -2.0344676447       10.6143713669
  C        10.6365322529       -2.4929055710        9.2529869137
  C         9.8879663329       -1.8598326021        8.2561240126
  C         9.0732480103       -0.7473290386        8.6312794586
  C         8.9263504563       -0.3048001825        9.9637694628
  H         8.3438360710        0.5977713166       10.2052622728
  H         8.5474771711       -0.3070135841        7.7566356642
  H         9.9106987700       -2.0711640618        7.1672533020
  H        11.3055010433       -3.3227495538        9.0360361236
  H        11.0319325325       -2.5985939647       11.4217221418
