140

  C         3.9594132756       -0.4567541492       14.0724990070
  C         5.0727419784        0.1729760361       14.7122822772
  C         6.2746928074        0.6244226905       14.0045074178
  C         7.3790754501        1.2564573808       14.6375061635
  C         8.3537312543        1.9340705229       13.8806094287
  C         5.0062388322        0.6874518359       16.1347226745
  C         4.1930174221        1.8109832899       16.3381393777
  C         4.2766850211        2.4895109968       17.5421965196
  C         4.9960187401        2.0220656568       18.6779505675
  C         5.8335314845        0.8540090094       18.4676597821
  C         5.9175045522        0.2773910501       17.1880044188
  H         7.4699510592        1.1213081024       15.7417794181
  H         9.1693746591        2.4350028700       14.3807369454
  H         3.6914225963        2.2959207044       15.4774102964
  H         3.7914830541        3.4173646078       17.6421494943
  H         4.9605788255        2.5798351187       19.6352129394
  H         6.4910611900        0.4731877069       19.2757449891
  H         6.5689249743       -0.5592742005       17.0079030904
  C         3.9284024149       -0.4731747910       12.5992372887
  C         2.9214776512       -1.1382235435       11.9604320674
  C         1.8051157911       -1.7128154313       12.6516092027
  C         1.8137353563       -1.6589659870       14.0846056460
  C         2.9344674980       -1.1149619185       14.7504566704
  C         6.0970125568        0.7029475634       12.5735221957
  C         4.9409832464        0.2084018038       11.9223613971
  C         4.8925493428        0.7562101594       10.4319973820
  C         4.1914557400        1.8927916100       10.1465931180
  C         4.1599782629        2.4390596818        8.8365362564
  C         4.9669407300        1.8704248041        7.8538426738
  C         5.6918790617        0.6683122639        8.1657730979
  C         5.6882135575        0.1813933069        9.4552721469
  H         6.1302422661       -0.7486194999        9.6954473832
  H         6.3986077862        0.1703386276        7.4910214451
  H         5.0027025578        2.2931877054        6.8755829881
  H         3.6494720699        3.3758217985        8.6344293909
  H         3.7057723953        2.4780725585       10.8893936093
  C         7.1596982832        1.2824580542       11.8998264930
  C         8.2305332988        1.9250051194       12.4713796880
  H         9.1195002868        2.1707614377       11.9405296540
  H         7.1932764290        1.2662569698       10.8103374613
  C         2.9912379147       -1.2408964525       16.1998379922
  C         3.8858360038       -2.1713609402       16.7591759740
  C         3.8508489775       -2.4379177482       18.1603894800
  C         2.9683606970       -1.8155476963       19.0602249613
  C         2.1072850166       -0.8711000039       18.5401249270
  C         2.0327081877       -0.6601572364       17.0775451398
  H         1.3340860427        0.0523694919       16.6675693915
  H         1.2764850295       -0.4308543964       19.0516280868
  H         3.0334383644       -2.0910793864       20.1306528143
  H         4.4617510957       -3.2232505566       18.5539755323
  H         4.6226969787       -2.7337934220       16.1695320228
  C         0.7908875340       -2.2622863083       14.8896131007
  C        -0.2964885552       -2.7519877295       14.2276361071
  C        -0.3199727472       -2.8504996667       12.8140121085
  C         0.7127789513       -2.3530582487       12.0373986743
  H         0.7306955671       -2.3831325395       10.9880341621
  H        -1.1390560096       -3.3972667958       12.3161376665
  H        -1.1072092841       -3.2200711808       14.7706256044
  H         0.9503646059       -2.3070635881       15.9394316220
  C         3.0568931692       -1.4497971129       10.5006255448
  C         4.0775139374       -2.3596643693        9.9854132251
  C         4.1426549440       -2.6426826861        8.6045234893
  C         3.2654332465       -2.0192778189        7.7030761080
  C         2.2962257155       -1.1307207039        8.1473326190
  C         2.1537887824       -0.9314951477        9.5635818376
  H         1.3528764236       -0.4004112050        9.9816480030
  H         1.5131435269       -0.7706638760        7.4934207452
  H         3.3319539044       -2.2919429653        6.5934850046
  H         4.9283768570       -3.2146433308        8.0605208617
  H         4.7911946357       -2.8478509237       10.6678705072
  C        11.4742224622       -0.3091614290       14.4451429810
  C        12.5007506891        0.5251543949       15.0795316944
  C        13.5321772697        1.0899986700       14.3014972728
  C        14.6362095610        1.8149162606       14.8721245220
  C        15.5946017264        2.4913157356       14.0634140719
  C        12.3735001804        0.9008443419       16.5433873924
  C        11.5090594621        2.0299236759       16.8206500691
  C        11.4476754461        2.5183765249       18.1334493582
  C        12.0953198647        1.8386591295       19.1796379073
  C        12.8577358399        0.7234013871       18.9684662694
  C        13.0609615920        0.3485987056       17.6352637286
  H        14.6842421066        1.9311035579       15.9337380168
  H        16.3668343295        3.1440007039       14.5144185184
  H        10.9976485281        2.5696719061       15.9964821922
  H        10.9382785858        3.5081452124       18.3172899258
  H        12.0834263076        2.2999184308       20.1891562106
  H        13.3499804869        0.1263371427       19.7239397196
  H        13.7599120493       -0.4502968033       17.4046453630
  C        11.3470962022       -0.2131601222       12.9316975457
  C        10.2447019099       -0.8488202507       12.2882577796
  C         9.2069039978       -1.4931968932       13.0950896732
  C         9.4169318779       -1.6488390260       14.4997142493
  C        10.5116707072       -1.0604581158       15.1736581756
  C        13.4418623129        1.0154917560       12.8592223285
  C        12.3576364652        0.3881091849       12.1834165500
  C        12.2979958934        0.6566615161       10.6784024377
  C        11.5564123276        1.7589035208       10.2416730572
  C        11.6901715429        2.2086483314        8.9221737022
  C        12.5784630690        1.6426035021        7.9630068836
  C        13.1610396491        0.4772691625        8.3581708674
  C        13.0924655803       -0.0006234364        9.6876214559
  H        13.7551674886       -0.7866296363       10.0164846996
  H        13.8621143833       -0.0559117120        7.7377071785
  H        12.5663567204        1.9444542466        6.9548345538
  H        11.1282321771        3.1163438673        8.6754623533
  H        10.8404188966        2.2611668785       10.8181223182
  C        14.4543517190        1.6661461240       12.0959116787
  C        15.4788163948        2.4531583362       12.6403624208
  H        16.2859329781        2.9341564165       12.0468522714
  H        14.4367509424        1.6592829855       10.9950323558
  C        10.5570430347       -1.4393262316       16.5891364651
  C        11.3244240429       -2.4945657634       17.0666251427
  C        11.1783024253       -2.8740548575       18.4427114979
  C        10.3038152089       -2.2187223178       19.2724786898
  C         9.4736179427       -1.1885280704       18.7459266852
  C         9.6873417746       -0.7876590341       17.4482569033
  H         9.0761977523        0.0107541447       17.0144223187
  H         8.7557448315       -0.5760423180       19.3207144134
  H        10.1963869515       -2.5215940786       20.3140110794
  H        11.8180350149       -3.7266685009       18.7961653222
  H        12.0341755499       -3.0637185915       16.4902994251
  C         8.4385536310       -2.4743603970       15.1596961052
  C         7.3328098711       -3.0301420527       14.5535209350
  C         7.1232836236       -2.7783858026       13.1539553931
  C         8.1207407574       -2.1138356366       12.4685028883
  H         8.0499706998       -2.0079038764       11.3816183924
  H         6.2554904600       -3.1554266714       12.6142725091
  H         6.6248332403       -3.6111335108       15.0584146470
  H         8.5751973244       -2.5231392861       16.2402275179
  C        10.1225743940       -1.2534484335       10.8358087136
  C        10.9266928839       -2.3495141591       10.4079639019
  C        10.9652571091       -2.8520046741        9.1108682651
  C        10.3151620109       -2.1251456261        8.0941406780
  C         9.5713260229       -0.9878976387        8.5066645470
  C         9.4156241572       -0.5451154912        9.8314739142
  H         8.8156530140        0.3105271477       10.1449939494
  H         9.0037726292       -0.4404928763        7.7585626735
  H        10.3580954301       -2.3910447236        7.0606784570
  H        11.6118340848       -3.7220569266        8.8849289064
  H        11.4849124584       -2.8280382036       11.1554134537
