140

  C        12.6724548102        7.0236838632        2.5914215786
  C        11.5764421444        7.7083368826        3.3461186727
  C        10.4728288310        8.2115674413        2.6076335907
  C         9.3350446918        8.8403247951        3.2642708132
  C         8.4068110917        9.4496994446        2.4830490461
  C        11.5949949711        8.0064850636        4.7913997097
  C        12.2479205742        9.1736575426        5.2577800566
  C        12.1020769415        9.6338307957        6.5628952452
  C        11.2732964952        8.9272157894        7.4242128344
  C        10.6220074805        7.7809322345        6.9851192437
  C        10.7624562370        7.2807124061        5.6946086618
  H         9.2531492353        8.9108488298        4.3468367240
  H         7.5314263545        9.9381396372        2.9528699787
  H        12.8624233749        9.7705472546        4.6539434254
  H        12.7670928818       10.3738741171        6.9641468937
  H        11.2123028144        9.2312274672        8.4563416310
  H         9.9877464253        7.1989539118        7.6821939662
  H        10.3042632406        6.3736873263        5.3610786939
  C        12.6209425202        6.9953387342        1.0689526068
  C        13.6419773570        6.2574957661        0.3514923834
  C        14.6663825390        5.6217285057        1.1177204272
  C        14.6876868877        5.6915796324        2.5302000113
  C        13.6867592219        6.3533359008        3.3164887153
  C        10.5002086522        8.2784171396        1.0942654710
  C        11.6121958610        7.6924004497        0.3835152095
  C        11.7503366501        8.0114590693       -1.1041590233
  C        12.6213321974        9.0898674835       -1.4311999819
  C        12.7688805780        9.5237784144       -2.7138747226
  C        11.9162602292        9.0279741788       -3.7016052264
  C        11.0936040077        7.8830377661       -3.4450254834
  C        11.0603953114        7.3849879429       -2.1283803163
  H        10.4008781816        6.5432149179       -1.9641573592
  H        10.3980470250        7.5897261697       -4.2552227934
  H        12.0099392346        9.2940911102       -4.7667866318
  H        13.3786962109       10.3672283416       -2.9938409769
  H        13.1731242369        9.5794231036       -0.6176117148
  C         9.4544020144        8.9100024009        0.3874435782
  C         8.3726414381        9.3637342266        1.0579204333
  H         7.6585028567       10.0426180996        0.5745219817
  H         9.6462827177        9.0319056785       -0.6462837142
  C        13.6076214990        5.9874837565        4.7851328532
  C        12.7066493946        4.9582754372        5.2043458258
  C        12.6641761151        4.4819612128        6.5296410066
  C        13.5378302268        5.0651538622        7.4981292987
  C        14.4900076214        5.9940619461        7.0643534010
  C        14.5654010111        6.4743679699        5.7458106761
  H        15.2406300023        7.2992558430        5.4847960413
  H        15.0976472650        6.4097916976        7.8826666033
  H        13.5549306019        4.7870168974        8.5707461111
  H        11.9578690345        3.6971998714        6.7598390044
  H        12.0968865394        4.4450188330        4.4342308207
  C        15.7024236566        4.9077369329        3.1909101530
  C        16.7178885115        4.2996860753        2.4946636574
  C        16.8177500595        4.5090822589        1.0976292803
  C        15.8216304904        5.1032458394        0.4220978939
  H        15.9381982761        5.3200225344       -0.6255949031
  H        17.6172415859        3.9367808483        0.6204852944
  H        17.5106989726        3.8626929144        3.0631069605
  H        15.6272781214        4.6673409240        4.2177312967
  C        13.5779004571        5.8985898514       -1.1325382995
  C        12.8880998357        4.7521647003       -1.5284417238
  C        12.7780916141        4.2079939448       -2.8243976024
  C        13.5354727077        4.8392658481       -3.8492819012
  C        14.3787121641        5.9300737406       -3.4716011904
  C        14.3558308624        6.5256469960       -2.1751419306
  H        15.0403049052        7.4557549925       -2.1135494089
  H        14.8703580030        6.5285958878       -4.2471618410
  H        13.6525461493        4.4560190454       -4.8731295880
  H        12.0900164274        3.3640677416       -3.0513716254
  H        12.2853439585        4.2061169757       -0.8447853781
  C        19.8867768550        7.1201525458        2.5829055746
  C        18.8599390851        7.7640094627        3.3316569062
  C        17.7194976180        8.2659981281        2.5867027619
  C        16.6797461010        8.9317945555        3.2974795511
  C        15.6095470743        9.4782468717        2.5694736082
  C        18.9010808834        8.2236669292        4.7804662800
  C        19.6281663943        9.3540480176        5.2793679324
  C        19.6018221628        9.6376812631        6.6305963914
  C        18.8632741653        8.8718202819        7.5337732446
  C        18.0519136848        7.8741346648        7.1047924368
  C        18.0563552165        7.5357660558        5.7210954406
  H        16.6813859950        9.0234189054        4.3635818829
  H        14.8365630698       10.0718875510        3.1292925951
  H        20.1598970882        9.9468367029        4.6214371681
  H        20.2414589344       10.3954110541        7.0387392013
  H        18.9220505297        9.1402908589        8.5705145883
  H        17.5659496991        7.1332177169        7.7851003814
  H        17.3868549982        6.7441574883        5.3853349738
  C        19.8005969622        7.0602551773        1.1344511643
  C        20.8411563946        6.3238954477        0.3916939251
  C        21.8994615760        5.7087450557        1.0422059090
  C        21.8188479849        5.6659091212        2.4912559792
  C        20.7969763921        6.2790521974        3.2451081511
  C        17.6846410966        8.2277727790        1.1604079124
  C        18.7372370935        7.6252748900        0.4078622468
  C        18.7612026422        8.0469966344       -1.1015413393
  C        19.5598322964        9.2448492927       -1.3878385978
  C        19.4098900028        9.8786824673       -2.6135014754
  C        18.6075836694        9.3228602461       -3.6114347313
  C        17.8768705869        8.1436859385       -3.3438887032
  C        17.9470205643        7.5416517332       -2.1213504348
  H        17.3334543926        6.6239445900       -1.9470945912
  H        17.2826974858        7.7076945597       -4.1164687760
  H        18.5170236513        9.7856255020       -4.5841020063
  H        19.8465512932       10.8537860362       -2.8676829782
  H        20.0894813003        9.6656771098       -0.5423813473
  C        16.5135794125        8.6330958855        0.5110801466
  C        15.5196054479        9.3974364997        1.1544761138
  H        14.5088461061        9.5587017076        0.7177454793
  H        16.3199215840        8.4276168043       -0.5306385684
  C        20.7739544133        5.9858542506        4.7133084751
  C        19.9014882391        4.9642137171        5.1014504174
  C        19.8776904302        4.4564489801        6.4155751579
  C        20.6856909811        5.0118088861        7.4215405525
  C        21.5054018221        6.0445228780        7.0400724472
  C        21.5077864472        6.6282931829        5.7689774403
  H        22.1834735307        7.4924489774        5.6482896362
  H        22.0329974576        6.5481609016        7.8030863256
  H        20.7686521657        4.6105853367        8.4134267413
  H        19.3405125332        3.4895556314        6.4589509960
  H        19.3372936700        4.4364865576        4.3421147118
  C        22.6605300897        4.7135849647        3.0893757023
  C        23.7825462834        4.1659281777        2.5539291469
  C        24.0126348460        4.4808986653        1.1029752636
  C        23.0567836220        5.1063102624        0.3874111026
  H        23.1631458322        5.2858100017       -0.7204818323
  H        24.9355003055        4.1004918957        0.5967873879
  H        24.4941619041        3.5492876479        3.0966549668
  H        22.4970297014        4.5595569621        4.1778582972
  C        20.4684238107        5.8275962574       -0.9617641634
  C        19.3821284797        4.9301532310       -1.0592209107
  C        18.9834692261        4.3091075731       -2.2705605341
  C        19.6869037955        4.6530866346       -3.4002528328
  C        20.8456282929        5.4515822673       -3.3039236094
  C        21.2013614528        6.1638543937       -2.1459677914
  H        21.7677993241        7.1082656542       -2.1555350255
  H        21.4122752953        5.6087991735       -4.1958986656
  H        19.3856629088        4.2386431741       -4.3658897632
  H        18.1524605792        3.6006310493       -2.2966817460
  H        18.8799055704        4.6635427797       -0.1704879999
