140

  C        11.1806290128        6.8676396629        0.6854768923
  C        10.2536623249        7.5296132080        1.5181937688
  C         9.1778177406        8.2217197531        0.9397577377
  C         8.2724506435        9.1975040675        1.6020344679
  C         7.2175695043        9.7471287429        0.9060284927
  C        10.5005208698        7.9317814678        2.9402347873
  C        11.3865953551        8.9940579443        3.1235454992
  C        11.4900048334        9.6133079411        4.3548173467
  C        10.5168101779        9.2033018966        5.3474825954
  C         9.6803128591        8.1362978353        5.2051861720
  C         9.6830684392        7.5135287735        3.9315372050
  H         8.3654451451        9.3494049939        2.6055919609
  H         6.6110003339       10.3542306213        1.5971265645
  H        11.9814571783        9.3314949682        2.3448084066
  H        12.1248522945       10.3804583379        4.5686555579
  H        10.5262050847        9.8438707411        6.2007707068
  H         8.9585405086        7.7869151893        5.9510759291
  H         8.9591611045        6.7322455233        3.7340462778
  C        11.0970614289        6.9242900788       -0.8536384873
  C        12.0576568564        6.1435212398       -1.5519026370
  C        13.1482880660        5.4854134697       -0.8607188840
  C        13.1859760317        5.4639990893        0.6506211333
  C        12.1888463600        6.1004364029        1.3810456972
  C         8.9961075832        8.1984890940       -0.5725840750
  C        10.0046118347        7.6997133267       -1.4522204572
  C        10.0248654299        8.0890213164       -2.8874000409
  C        11.1053543482        8.8727226453       -3.2655667658
  C        11.1149539672        9.3404814021       -4.5694994671
  C        10.1203185894        9.0199173381       -5.5144382197
  C         9.1538495027        8.0862012488       -5.1262855637
  C         9.1036864347        7.6401819447       -3.8586115196
  H         8.2990500099        6.9220193357       -3.6337124051
  H         8.4478067623        7.6836159230       -5.8639502701
  H        10.2529610336        9.3418894056       -6.5128523407
  H        11.9833319914        9.9037495492       -4.9025926214
  H        11.8195728218        9.1050558923       -2.4933600734
  C         7.8984938845        8.8538432873       -1.1716444818
  C         6.8931196131        9.5225479030       -0.4733596270
  H         6.1891057844       10.1232535644       -1.0200126256
  H         7.7552570363        8.8081747837       -2.2314178004
  C        12.2089383382        5.8242627711        2.8474446868
  C        11.5384323194        4.6940133953        3.3641578621
  C        11.5515206549        4.4733382607        4.7593196801
  C        12.1681699329        5.3058920326        5.6773673647
  C        12.9865831266        6.3221025898        5.1278491140
  C        12.9727203809        6.5624782616        3.7461898913
  H        13.4193445504        7.5383907221        3.4921076334
  H        13.5599165818        6.9974435015        5.7766583539
  H        12.0878548916        5.0517221620        6.7392775599
  H        11.0013299175        3.6395022715        5.1621354667
  H        10.9798825399        4.0572447253        2.6931629106
  C        14.3040197075        4.7848530275        1.1307630577
  C        15.3851700952        4.2936958611        0.4207620815
  C        15.2100069197        4.2358467237       -0.9861138108
  C        14.1293989807        4.8231605702       -1.6079789257
  H        14.0666616803        4.6505101146       -2.7125524302
  H        15.9899522112        3.7551114376       -1.5812289122
  H        16.3119137975        3.9475873245        0.8151354227
  H        14.4709497812        4.8125892398        2.2469917447
  C        11.8729319034        5.8323255971       -2.9697344714
  C        10.9770451491        4.8699143503       -3.3855841198
  C        10.9713960232        4.4186791496       -4.7360001716
  C        11.6947920679        5.0741733067       -5.7334090081
  C        12.5912854364        6.1031044053       -5.3015008081
  C        12.7459424259        6.4059671024       -3.9769271733
  H        13.5280927948        7.1739007096       -3.6518694050
  H        13.2659426961        6.5266982962       -6.0661510002
  H        11.8780576317        4.8345493258       -6.7896576108
  H        10.2014450818        3.7043644556       -5.0492087364
  H        10.2106149927        4.4553197396       -2.7153729102
  C        18.0918595427        7.0778730486        0.5748949214
  C        17.1065479052        7.8354114791        1.2548908017
  C        15.9758510392        8.2919688538        0.5123385530
  C        14.9104265935        8.9387603921        1.2596499434
  C        13.9575725712        9.6487439963        0.5592128627
  C        17.2849477706        8.2887638988        2.6634679558
  C        18.4201505606        9.1068413698        3.0210257692
  C        18.5668500557        9.6248869343        4.3174650508
  C        17.5930006739        9.2566246836        5.3118230414
  C        16.5787887065        8.3681222916        5.0035026061
  C        16.3965640260        7.9290649443        3.7104358857
  H        14.9687323175        8.9740386679        2.3237898626
  H        13.3865097196       10.4474036624        1.0778720880
  H        19.1314278486        9.4530691198        2.2869259653
  H        19.3770528805       10.3410786625        4.5335129120
  H        17.5814934512        9.5455778197        6.3754124236
  H        15.7977184550        8.2854107385        5.7438839785
  H        15.5793171549        7.2116790346        3.5734425142
  C        18.0533209548        6.8994176918       -0.9324375772
  C        19.0944312754        6.1971326933       -1.6225819445
  C        20.2081546023        5.7105877401       -0.8837185436
  C        20.1427698996        5.6942421467        0.5518968073
  C        19.0674834221        6.2954399178        1.2826054990
  C        15.9819781787        8.1943837031       -0.8938700693
  C        16.9924696468        7.5954505807       -1.6538601915
  C        17.0221154297        7.8577379490       -3.1107916406
  C        17.7175203697        9.0080624851       -3.6447686793
  C        17.5638032859        9.4427012497       -4.9450998753
  C        16.7093478340        8.7327592953       -5.7946436162
  C        16.0126300523        7.6057106193       -5.3118254549
  C        16.1655855621        7.2058752679       -4.0076820881
  H        15.6681547019        6.3001359483       -3.6834079303
  H        15.4114017643        6.9895483032       -5.9712720754
  H        16.4911185250        9.0924103071       -6.7656804534
  H        18.1682207689       10.2671051418       -5.3244104912
  H        18.4941672211        9.5181204100       -3.0516317830
  C        14.9218007689        8.8938470643       -1.5629230942
  C        14.0020234010        9.6222809200       -0.9097225168
  H        13.2753013931       10.2433093452       -1.4661174598
  H        14.9534651023        8.9983886038       -2.6192587723
  C        18.9774345965        6.0031871793        2.7502315949
  C        17.8681477503        5.1775044122        3.1528299367
  C        17.8910698511        4.5711298367        4.4028799660
  C        18.8048148062        5.0221332596        5.3288028094
  C        19.7778836147        5.9451320017        5.0202745373
  C        19.9066989128        6.3885892556        3.7241738176
  H        20.7231350589        7.0465559232        3.4726959665
  H        20.3217201106        6.3929300067        5.8262446842
  H        18.6667675200        4.7121583509        6.3442040182
  H        17.0523047071        3.9544727219        4.6236777326
  H        17.0411512727        4.9620327807        2.5114751734
  C        21.0959826661        4.8037383399        1.1954498015
  C        22.2134016496        4.3402683520        0.5614096926
  C        22.3491782300        4.5194001674       -0.8645216142
  C        21.3947977388        5.1290343095       -1.5692313507
  H        21.4665940370        5.2217013004       -2.6402545080
  H        23.2062983845        4.1057002244       -1.3808894143
  H        22.8939710167        3.6713139586        1.1027010683
  H        20.9722007019        4.6679782119        2.2515010646
  C        19.0875656836        5.7807974917       -3.1015746878
  C        18.3078158088        4.7201808331       -3.6177996982
  C        18.4620974815        4.2834628531       -4.9199573541
  C        19.3223722753        4.9530684949       -5.7851322378
  C        19.9789306952        6.1037689800       -5.3574916821
  C        19.9197182046        6.5037364676       -3.9887095831
  H        20.4645686394        7.3275581148       -3.5977740966
  H        20.6460750091        6.6531185762       -6.0402458871
  H        19.4267890048        4.6171761785       -6.8251821172
  H        17.8178490590        3.5455965073       -5.3746555155
  H        17.4972237820        4.2007556461       -3.0398396793
