140

  C         8.1538534779        8.4225473426        1.4062036396
  C         7.1290095899        9.1699641872        2.1523874651
  C         6.0513443194        9.6612640173        1.4236974122
  C         4.9623508490       10.3727138486        2.0272699433
  C         4.0016171440       10.9437292508        1.2664741710
  C         7.1674418832        9.5682501809        3.6036403314
  C         7.9402589653       10.7106005479        3.8867324341
  C         8.0928086132       11.1575461005        5.2452862884
  C         7.2940470705       10.5425564896        6.2610964190
  C         6.4817398283        9.4634294728        5.9266127644
  C         6.4496545198        8.9589709017        4.6087657965
  H         4.9090012503       10.3663746962        3.0985375341
  H         3.1190757362       11.4448648019        1.7657610247
  H         8.4855293869       11.2281947900        3.1031578870
  H         8.7465947614       12.0077761312        5.5540826162
  H         7.2564482995       10.9396253936        7.3326705178
  H         5.8597611102        9.0632451890        6.7278467552
  H         5.7839625201        8.1028382142        4.3142464379
  C         8.1121399940        8.2525249073       -0.0663776320
  C         9.1534216488        7.5301088572       -0.7685035844
  C        10.3187346079        7.0658272061       -0.0383946450
  C        10.2871999723        7.1251995775        1.4001572231
  C         9.2213357152        7.7420188561        2.1022594703
  C         6.1181669205        9.5939469677       -0.0874792021
  C         7.1148277829        8.9836408260       -0.8209616113
  C         7.1434432601        9.3884427939       -2.3107496940
  C         8.0317949271       10.3945776815       -2.7407619589
  C         7.9799181449       10.8218365235       -4.0456335422
  C         6.9404856886       10.4678337768       -4.9168404715
  C         6.0489680124        9.4382145711       -4.5197936542
  C         6.2332633125        8.9205105381       -3.2495101157
  H         5.6042382550        8.1398666714       -2.8590019057
  H         5.2832181956        8.9377992741       -5.0886710788
  H         6.8483884783       10.7405649098       -5.9316500145
  H         8.7431435310       11.5213301025       -4.4432281535
  H         8.7573908977       10.8501509530       -2.0589845360
  C         5.1075806089       10.3871739875       -0.8042629014
  C         4.0699855112       10.9656799051       -0.1357920852
  H         3.3279747196       11.5422461740       -0.7151592822
  H         5.0616753297       10.4729809164       -1.8994659355
  C         9.2365464484        7.4487812384        3.5780791163
  C         8.5364245606        6.3801099196        4.0649934166
  C         8.6296865002        6.0180016340        5.4064096859
  C         9.3460484278        6.8836227944        6.3034589056
  C        10.0089559069        7.9923703785        5.8165423418
  C         9.9348835811        8.2767567663        4.4416698563
  H        10.4220743187        9.1529505666        4.0539619278
  H        10.7412532941        8.4761782404        6.4626685414
  H         9.3067327698        6.5955540877        7.3603534963
  H         8.1033671236        5.1530349090        5.7847544020
  H         8.1179528351        5.6929664828        3.3490847731
  C        11.5005823825        6.6138673489        2.1031516254
  C        12.6381368211        6.2775566027        1.3726593682
  C        12.5570432192        6.2391078620       -0.0630038433
  C        11.3633341922        6.4556517999       -0.7467832205
  H        11.2235703977        6.2674526135       -1.8164262293
  H        13.4229622286        5.6922513929       -0.5120477630
  H        13.5142853317        5.8670375236        1.8566430455
  H        11.4171258348        6.5179763744        3.1809209748
  C         9.1114631508        7.1761659685       -2.2406706036
  C         8.2339065737        6.1883817404       -2.7446785848
  C         8.2356086911        5.8240349961       -4.0764350252
  C         9.1354450886        6.4781299960       -4.9403477660
  C        10.0626550940        7.3807078482       -4.4773565734
  C         9.9507843550        7.8273881102       -3.1278697319
  H        10.5607109900        8.6383151400       -2.8125411143
  H        10.6772863830        7.8282062536       -5.2175389673
  H         9.2184030856        6.1847117010       -5.9984195571
  H         7.5998758982        5.0096238540       -4.3506671089
  H         7.5444837822        5.8371994094       -2.0436801129
  C        15.3735979907        8.4829793535        1.2991414222
  C        14.4282168070        9.3355681816        1.9604071039
  C        13.3287387373        9.8117560602        1.2588543129
  C        12.2274025246       10.4498355888        1.9451161995
  C        11.1320912190       10.9842362265        1.3223804501
  C        14.4999885154        9.6262171031        3.4644909243
  C        15.2844386709       10.7558720537        3.6620154196
  C        15.4156901661       11.2513872826        4.9600747730
  C        14.5802233320       10.7472214313        5.9762365270
  C        13.6478517912        9.7337606950        5.6921081318
  C        13.6589627301        9.1378749961        4.4310977866
  H        12.2441902603       10.5340159316        3.0052575466
  H        10.2968352945       11.4731850473        1.8601596830
  H        15.8630599911       11.1179580188        2.8223877764
  H        16.1426223997       12.0334100969        5.2389798244
  H        14.7945920968       11.0629312508        7.0016337329
  H        13.0204951996        9.3179099563        6.5161101189
  H        13.0273660005        8.2983636086        4.1155689192
  C        15.3065686611        8.4123461317       -0.1867871410
  C        16.2128800012        7.5509042423       -0.8456960494
  C        17.3301303005        6.9827701648       -0.1867134330
  C        17.3694455255        7.0766199837        1.2356940568
  C        16.3670678695        7.7445054292        1.9270576676
  C        13.2290413414        9.7748101830       -0.1378009708
  C        14.3201026248        9.2023865277       -0.8505561348
  C        14.4205074699        9.4516673451       -2.3309737534
  C        15.4467744314       10.2860621055       -2.7676964464
  C        15.6803604760       10.6650586365       -4.0798209798
  C        14.7646482826       10.1477251270       -5.0612760695
  C        13.7632825471        9.2961313418       -4.5967972479
  C        13.5647815201        8.9641808069       -3.2651278112
  H        12.6436177158        8.4748003099       -3.0477708805
  H        13.0486363449        8.8144515133       -5.3590188410
  H        14.9240162174       10.2204214741       -6.0864952234
  H        16.6626285998       11.1662826839       -4.2332890774
  H        16.1562622707       10.7068294921       -2.0221560481
  C        12.1286246813       10.4049580030       -0.7882319280
  C        11.0221435223       10.8721937767       -0.0590823824
  H        10.1425423004       11.1604443656       -0.5656761844
  H        12.0648373779       10.3395301696       -1.8645270767
  C        16.3823955381        7.4458826764        3.4567363789
  C        15.7880923524        6.2833432937        3.9788268645
  C        15.7170126752        6.0209514340        5.3557365379
  C        16.2774900295        6.8924638309        6.2777261159
  C        17.0364111201        7.9369366195        5.7204130579
  C        17.0564350988        8.2502570824        4.3731820652
  H        17.6370832650        9.0831716128        3.9614050719
  H        17.7481354693        8.5587139124        6.3741748364
  H        16.2687312341        6.7217711103        7.3879492587
  H        15.2611122628        5.1516016402        5.7839101241
  H        15.3005287879        5.6087439409        3.3192676185
  C        18.3892471521        6.3189726322        1.8882043957
  C        19.4469738440        5.8223304758        1.1411833772
  C        19.4143945878        5.7840844177       -0.2496808185
  C        18.3656943912        6.3734843754       -0.9177338038
  H        18.3046700756        6.2077881684       -2.0148251452
  H        20.2316611553        5.2885051025       -0.7496364367
  H        20.3233315527        5.4174774802        1.6419723867
  H        18.4172247804        6.2897158953        2.9649321386
  C        16.1525421998        7.1843693187       -2.2765655767
  C        15.4326229667        6.0328984434       -2.6937615364
  C        15.6041742966        5.5759824892       -3.9872033045
  C        16.3510374039        6.2365254368       -4.9646367887
  C        17.0848356662        7.3957805626       -4.5089501572
  C        16.9433403603        7.8767172265       -3.2345080988
  H        17.5439813318        8.6987908799       -2.8985101589
  H        17.5789027705        8.0218474664       -5.2479019080
  H        16.5544214075        5.9108431351       -6.0261135842
  H        15.0144293713        4.6759916896       -4.1422900305
  H        14.6291969395        5.6431840370       -2.0517159400
