140

  C         4.3525554827       -0.1346256671       15.7187078878
  C         5.3359690210        0.6224476467       16.4395411637
  C         6.3901994445        1.2584274277       15.6984215780
  C         7.3943103530        1.9693843874       16.4014031137
  C         8.5419469400        2.4061751183       15.7481720808
  C         5.1428061994        1.0519158040       17.8371196377
  C         4.2938236401        2.0568819926       18.3545492391
  C         4.3355389350        2.3506361216       19.7353554818
  C         5.2188028203        1.7312718103       20.6161691280
  C         6.0574072165        0.7041117878       20.1376799459
  C         6.0075889442        0.4407340393       18.7741701369
  H         7.3207287945        2.0613742121       17.4934875716
  H         9.3413890412        2.7449860036       16.4239575828
  H         3.4387700038        2.5144746459       17.7736386943
  H         3.5800042515        3.0351044797       20.1583092676
  H         5.3475126004        1.9095076593       21.6687954300
  H         6.6745125941        0.1262999899       20.8490368437
  H         6.5336416962       -0.3987487638       18.4151184781
  C         4.4385834029       -0.2014554784       14.2354804356
  C         3.3356368394       -0.8687167341       13.5671064254
  C         2.2252141636       -1.4211811985       14.2340217745
  C         2.2410770581       -1.4173720473       15.6370387877
  C         3.2825673702       -0.8324149468       16.3854154151
  C         6.5656026089        1.0958743935       14.2502128442
  C         5.4878824485        0.4533466525       13.5551229375
  C         5.5699605016        0.7320212597       12.0693495442
  C         4.9476581861        1.8948208443       11.4998179859
  C         4.9445979305        2.1834620104       10.1142746194
  C         5.5958233810        1.3243875856        9.2455618136
  C         6.2389999732        0.1964735823        9.7713897496
  C         6.1132997470       -0.1494181243       11.1226222323
  H         6.5444311035       -1.0552105041       11.4865836316
  H         6.7534560689       -0.5937767279        9.1578817651
  H         5.5719663089        1.5751717256        8.1810644828
  H         4.3998415245        3.0677008156        9.7347356149
  H         4.4068462492        2.5936030448       12.1798210767
  C         7.6113009030        1.8097962550       13.6300308826
  C         8.6591158869        2.3695812225       14.3130666698
  H         9.4760482406        2.8661834157       13.7909351273
  H         7.6304866696        1.8213051954       12.5520964264
  C         3.3884746099       -1.2640876870       17.8625967883
  C         4.2198538631       -2.3963936268       18.1631779224
  C         4.3398773732       -2.8617668928       19.4517170064
  C         3.6625737115       -2.1740917016       20.5695521775
  C         2.9163277446       -1.0247139069       20.2853715297
  C         2.7723634096       -0.5482409868       18.9239199826
  H         2.0574770330        0.2209484439       18.6088815321
  H         2.4759544768       -0.4284424489       21.0560071719
  H         3.6089265749       -2.5805914764       21.6081943060
  H         4.9033471327       -3.7235968866       19.7554387916
  H         4.7204766305       -2.8213469127       17.2426459723
  C         1.1363849130       -2.0550238946       16.2934671457
  C         0.0814537136       -2.6036927602       15.5965329035
  C         0.0945384408       -2.4766600559       14.1711689786
  C         1.1472563923       -1.9574603880       13.4380938961
  H         1.2072062506       -2.0193358636       12.4065123046
  H        -0.7728461814       -2.8997385180       13.6698796110
  H        -0.7050595594       -3.1618355887       16.0918828565
  H         1.2017286051       -2.2460412556       17.3287882269
  C         3.4252483388       -1.2220414497       12.0981450394
  C         4.1421074952       -2.3897556961       11.6283133642
  C         4.0493396650       -2.7952817493       10.3183796155
  C         3.3003279874       -2.0643470619        9.4186291942
  C         2.6650990952       -0.8917584482        9.7878418114
  C         2.6772579904       -0.5266753765       11.1231744044
  H         2.2710250624        0.4308870981       11.4284884268
  H         2.1602811722       -0.2766087314        9.0149487874
  H         3.1111926229       -2.3296640343        8.3814505832
  H         4.5734436070       -3.7059756647       10.0304435578
  H         4.8450383601       -2.9849244330       12.2768979918
  C        11.6807412288        0.0675092083       15.7661372676
  C        12.7529885242        0.8772434894       16.4619245109
  C        13.8189619596        1.3794253565       15.6914795709
  C        14.7872116330        2.1257420760       16.3527867029
  C        15.8815400274        2.7221955658       15.7667400605
  C        12.5607113534        1.1933267896       17.8905354489
  C        11.8530810233        2.3715887039       18.2643076701
  C        11.8185839768        2.8221034282       19.5858830586
  C        12.5270353765        2.1028653868       20.4903564610
  C        13.2682349040        0.9464349638       20.1537968891
  C        13.2394499305        0.4352456750       18.8474998717
  H        14.7641422233        2.3207241318       17.4440300952
  H        16.7080842211        3.2161335419       16.3546403887
  H        11.4343485430        2.9182385849       17.4587999164
  H        11.3126694167        3.7334771952       19.8708199368
  H        12.4580054686        2.4233787709       21.5133351448
  H        13.8763718597        0.5241923685       20.9495533693
  H        13.7093352189       -0.5099006599       18.5443617465
  C        11.7358647654       -0.1142442734       14.2945325072
  C        10.6377163907       -0.7450515395       13.6258679309
  C         9.5456195977       -1.2287316500       14.2963728018
  C         9.4671257564       -1.1845861269       15.7128770831
  C        10.5782745243       -0.5783152958       16.4406299407
  C        13.8479070223        1.3378403143       14.2328502933
  C        12.7525000147        0.5859807011       13.5346069578
  C        12.6755718689        0.8533168724       12.0283510729
  C        11.9394187330        2.0656955268       11.6326010382
  C        11.8450098221        2.3749790401       10.2713663253
  C        12.5889570194        1.7006976968        9.2969871244
  C        13.3810305937        0.6085135173        9.7156791796
  C        13.4096297217        0.2221247925       11.0416731138
  H        14.1500115380       -0.5664482640       11.3241722603
  H        14.0087537096        0.0602757182        9.0349845639
  H        12.6597815174        2.1081575232        8.2920519216
  H        11.3885667040        3.3090677064        9.9776072684
  H        11.3920223049        2.5545463696       12.4315014331
  C        14.9575326397        1.9762052359       13.6389916619
  C        15.9479140096        2.6274048945       14.3796117040
  H        16.8442647682        3.0029346085       13.8980902771
  H        14.9815132304        2.0400521227       12.5841326390
  C        10.6389082787       -1.0398185190       17.9227783486
  C        11.5902568209       -2.0375137842       18.1734939054
  C        11.6954787571       -2.6577857138       19.4501906825
  C        10.8256270497       -2.2865415172       20.4907426868
  C         9.8621906835       -1.2597772153       20.1931511528
  C         9.8343787134       -0.5599570073       19.0290286750
  H         9.2840677389        0.3756680817       18.8145063335
  H         9.2019402247       -0.9154095380       20.9808536287
  H        10.7874762962       -2.7612022738       21.4481050451
  H        12.4174635693       -3.4560283451       19.5166830816
  H        12.2688640445       -2.4022892645       17.4118019620
  C         8.3334614785       -1.7791295635       16.4306861592
  C         7.3774763219       -2.4296488148       15.6980092405
  C         7.4020349059       -2.4882616072       14.2900583759
  C         8.4675556810       -1.8930201653       13.5774115352
  H         8.5256534584       -1.9872711263       12.4860595746
  H         6.5722256259       -2.8631728820       13.6834114644
  H         6.5187913290       -2.8136039770       16.2295464882
  H         8.2633178075       -1.8170561720       17.5038689440
  C        10.6636643921       -1.0501204327       12.1482449192
  C        11.4680778369       -2.1550436085       11.6431426545
  C        11.2992167358       -2.6758659073       10.3539933518
  C        10.5357506168       -1.9224390914        9.3962807632
  C         9.8700397033       -0.7891579559        9.8722641577
  C         9.9648403799       -0.2851608079       11.2134703258
  H         9.5221795773        0.6539209649       11.5329695899
  H         9.4484634206       -0.0931276894        9.1262661955
  H        10.2635142589       -2.1428046479        8.3795013489
  H        11.9634563317       -3.5206734202       10.0429541512
  H        12.1014674379       -2.5431575865       12.4438052884
