140

  C         3.2533855604       -0.0392282936       14.5891428473
  C         4.2761214094        0.7829149856       15.2133186930
  C         5.2839375963        1.3438572585       14.4003691777
  C         6.4179408146        1.9944655748       14.9236363932
  C         7.3017902263        2.7520785028       14.1467080263
  C         4.3519067766        1.0157496299       16.6737583100
  C         3.6251561767        2.1095673311       17.2020462918
  C         3.6567108766        2.4008487945       18.5728478306
  C         4.4869151044        1.6746399343       19.4296682101
  C         4.9991066316        0.4812673025       18.9906718702
  C         5.0396721880        0.1661022967       17.6223873214
  H         6.5325476549        2.0417100211       16.0059756332
  H         8.1200028941        3.2445175953       14.5901518015
  H         2.8896552965        2.7350687861       16.6839431260
  H         3.1244066639        3.3399492839       18.8373753500
  H         4.4847603377        1.7950129235       20.5531319428
  H         5.3593629437       -0.1472154360       19.7824475704
  H         5.5108777261       -0.7873243435       17.4439045803
  C         3.1039417231        0.0572463329       13.1480907238
  C         1.9847130252       -0.5445239386       12.5986480198
  C         0.9162324970       -1.0331776175       13.4201936790
  C         1.0285148967       -1.1427152704       14.8276193847
  C         2.2834490860       -0.6718894662       15.4638949803
  C         5.2109520934        1.3471838575       12.9509923299
  C         4.0283256516        0.7481813262       12.3239365631
  C         3.8105773281        1.1164521559       10.8811155952
  C         2.9527237188        2.2015642296       10.6474034988
  C         2.8550489094        2.7521341228        9.3441372267
  C         3.7100924150        2.2859080557        8.3093164224
  C         4.5803220754        1.2855285820        8.5395225658
  C         4.6395696558        0.7238261434        9.8604280775
  H         5.4129836155       -0.0428490842       10.0817464346
  H         5.1855096311        0.8501078559        7.7830365749
  H         3.7879422558        2.6970079383        7.3130686940
  H         2.3648743334        3.6769869479        9.0801639762
  H         2.3759514932        2.6085216693       11.4406879051
  C         6.1426581847        2.1229848876       12.1488273464
  C         7.1950046308        2.8336407108       12.7192022297
  H         7.8469608682        3.3643414306       12.0601759329
  H         5.7985715180        2.0735928287       11.0857686452
  C         2.4894797798       -1.0625357211       16.9166665859
  C         3.2106332176       -2.2416462861       17.2071757520
  C         3.2440293216       -2.7845934185       18.4788323093
  C         2.4935798337       -2.0992806160       19.4638818205
  C         1.7744037759       -0.9316805530       19.1667672805
  C         1.7737104464       -0.3750335525       17.9120660105
  H         1.1343688141        0.4833769786       17.6406660741
  H         1.0512341611       -0.5139872650       19.8318698377
  H         2.3691773848       -2.5043229338       20.4773368954
  H         3.8793374541       -3.7070989054       18.6912190669
  H         3.8046343891       -2.6226349728       16.3756187653
  C         0.0107025544       -1.7138083453       15.6488344264
  C        -1.0836077366       -2.2952071887       15.0476192778
  C        -1.2315844487       -2.1363552474       13.6368877436
  C        -0.2890414882       -1.5076876435       12.8342871273
  H        -0.2706952972       -1.6194774688       11.7413579988
  H        -2.1832046032       -2.5438760921       13.2759125716
  H        -1.8168052542       -2.8253472804       15.6764115952
  H         0.1128437094       -1.7562631785       16.7213006049
  C         1.9666373874       -1.0343882526       11.1693148281
  C         2.8183767849       -2.1425039133       10.8936994895
  C         2.9140789610       -2.5632868959        9.5855336064
  C         2.2493858677       -1.8588665242        8.5414058551
  C         1.3960835959       -0.7688751080        8.8741959463
  C         1.1738067582       -0.4634483440       10.1690626332
  H         0.4870358928        0.4035804424       10.3266831944
  H         0.8137559032       -0.3577667479        8.0258064146
  H         2.4427959629       -1.9325235022        7.4705991800
  H         3.4896168333       -3.4340487501        9.3614133950
  H         3.3929063309       -2.5631987449       11.7236868621
  C        10.2284217456        0.1893354909       14.6243909033
  C        11.3504354208        0.8354181121       15.3108796070
  C        12.4765984456        1.3608185633       14.6348838833
  C        13.6221918390        1.8886711772       15.2881472636
  C        14.7029393229        2.2745464537       14.5461840071
  C        11.2008820236        1.2176198552       16.7519412890
  C        10.2441158644        2.2035371886       17.0071056538
  C        10.1285852357        2.7606591254       18.3461045565
  C        11.0949652296        2.4334374152       19.3466163541
  C        12.0024855294        1.3397958442       19.0626440646
  C        12.0450559750        0.7246108106       17.7937401914
  H        13.5749728637        2.0012948760       16.3496358347
  H        15.5507264389        2.6819550975       15.0600219677
  H         9.5063513056        2.4358109106       16.2373833640
  H         9.4002647910        3.4781742548       18.6316300302
  H        11.0682198627        2.9198517608       20.3417812991
  H        12.6010910910        0.9643425709       19.8396710652
  H        12.6638411232       -0.1186726241       17.6633517923
  C        10.1610864717        0.1700620697       13.1495151554
  C         9.1004400231       -0.4334100933       12.4437689713
  C         8.0408386003       -1.1216170458       13.1548130201
  C         8.1255304582       -1.0921540174       14.6819988073
  C         9.1571541218       -0.4024900560       15.3817204510
  C        12.4161181682        1.2369607027       13.1590468905
  C        11.2612103416        0.8134847809       12.4267361269
  C        11.1112730237        1.3149218618       10.9999672989
  C        10.1779446964        2.3108971016       10.7021384231
  C         9.9091609907        2.7347354823        9.4043639335
  C        10.7292021127        2.3981574367        8.3419628476
  C        11.7892909828        1.5058121173        8.6642986060
  C        11.9553204738        0.8916636801        9.9357427016
  H        12.6917846777        0.1386100763       10.2055180159
  H        12.4332569224        1.1990690004        7.8630860093
  H        10.5814769877        2.7597958258        7.3129537538
  H         9.0327815401        3.4100570663        9.3440851200
  H         9.5975957476        2.7324729291       11.4806222680
  C        13.6038733426        1.7002120064       12.4601363144
  C        14.7586768548        2.0981102034       13.1073237885
  H        15.6679303351        2.2565406188       12.4407261599
  H        13.6197483951        1.5320285988       11.3946691934
  C         9.2225513143       -0.7342855377       16.8520295604
  C         9.8998144024       -1.9266935326       17.2486285316
  C         9.9067650618       -2.3251626005       18.5973875577
  C         9.0788036539       -1.7060449707       19.5667203076
  C         8.2802099024       -0.6122911022       19.1089962356
  C         8.3941813874       -0.1217541368       17.8008667911
  H         7.6621876543        0.6572693969       17.4805655834
  H         7.6436784807       -0.1000911392       19.8327166438
  H         9.0938853634       -2.0503985997       20.5590491256
  H        10.4118768675       -3.2539620575       18.7862260838
  H        10.4255124581       -2.5323400656       16.5192056196
  C         7.1004218372       -1.7969221952       15.4034904795
  C         6.1215771060       -2.4982267645       14.7277965030
  C         6.0725137176       -2.6048548513       13.2871884838
  C         7.0732201335       -2.0270992356       12.5198178127
  H         7.0044934009       -2.1915148558       11.3845104754
  H         5.2384978142       -3.0400615036       12.7949974445
  H         5.2820110914       -2.9190374301       15.1993899948
  H         7.0679735737       -1.8363922081       16.4811350743
  C         9.1649961688       -0.6786883193       10.9317476068
  C        10.0019832703       -1.6692221132       10.3504051035
  C        10.0033715643       -1.9464250263        8.9773201599
  C         9.1361525390       -1.1723380087        8.1328272300
  C         8.2012547516       -0.2972436554        8.7185874107
  C         8.2003423752       -0.0953459921       10.0761645613
  H         7.4237987038        0.5315015559       10.4409345073
  H         7.5410254534        0.3484909508        8.1557534438
  H         9.1835145308       -1.3476658654        7.0576969272
  H        10.5376466864       -2.8083715958        8.6164370369
  H        10.6138071158       -2.2882078936       10.9486961095
