140

  C         3.9314359068       -0.0747366482       14.1728329397
  C         4.8770464654        0.7141492577       14.8679912749
  C         5.9202327809        1.3417332491       14.1274065992
  C         7.0441831839        1.9876404706       14.8086070829
  C         8.2303042150        2.2833887926       14.1708458004
  C         4.7676850407        1.0829976423       16.2753474655
  C         3.9076729854        2.0732175771       16.7584689129
  C         4.0683029336        2.4798568805       18.1171670700
  C         4.9647997628        1.8678204640       18.9879228095
  C         5.8541123046        0.9009703740       18.4678245857
  C         5.7409944759        0.5405866428       17.1322976370
  H         6.9167731151        2.0968955794       15.9070793259
  H         9.0946811980        2.7555941177       14.5864865589
  H         3.1673268394        2.6161800607       16.1862122183
  H         3.3785883435        3.3004741051       18.4684359869
  H         5.0443156090        2.1194484904       20.0355525662
  H         6.5585840781        0.3031959105       19.0625913907
  H         6.4299587645       -0.1771068193       16.5863111733
  C         3.9724307371       -0.2175673358       12.7378324829
  C         2.9110249745       -0.9710734307       12.0633741104
  C         1.8408952785       -1.4872039543       12.7527377298
  C         1.8641922650       -1.4522256973       14.1668455375
  C         2.9357551281       -0.8289265091       14.8425919340
  C         5.9671416118        1.1605639230       12.6733000341
  C         4.9517938705        0.5056076224       11.9918875580
  C         4.9056536818        0.6726590784       10.5096407833
  C         4.1637498214        1.7546884681       10.0263361229
  C         4.4268335886        2.2886010294        8.7039262496
  C         5.2945703549        1.6508179279        7.8685906264
  C         5.9321315551        0.5116783369        8.2948110936
  C         5.8054086901        0.0248913967        9.6038225452
  H         6.4665862791       -0.7667226536       10.0128592552
  H         6.6348889374       -0.0338372588        7.6455786384
  H         5.4599331579        2.0269351063        6.8199397011
  H         3.9525357305        3.2026965140        8.3937636844
  H         3.5786845560        2.2411279288       10.7942434222
  C         7.0586872216        1.7674156321       11.9984453772
  C         8.1370313877        2.2177764793       12.7279583979
  H         8.8223609816        2.8659048196       12.1817417647
  H         7.0646047304        1.8844940973       10.9217775314
  C         3.1677009165       -1.3022411956       16.2339655341
  C         4.1433141145       -2.2594792967       16.5140933825
  C         4.3845211654       -2.7502493840       17.7854731358
  C         3.6916060121       -2.4126031642       18.9443561700
  C         2.7271653598       -1.4153127766       18.7070878292
  C         2.4964123929       -0.8982376410       17.3880464315
  H         1.5612745040       -0.3104009204       17.2569183735
  H         2.0479134940       -1.0014585887       19.4972647520
  H         3.9493905573       -2.8105726196       19.8973209922
  H         5.3338148184       -3.3350674139       17.9957892848
  H         4.8843003687       -2.5483257209       15.7593770555
  C         0.8213153186       -2.0729820548       14.9593280395
  C        -0.2546662989       -2.6340806834       14.3667030096
  C        -0.2508366547       -2.6774199120       12.9607022492
  C         0.7594430722       -2.2131472903       12.1913716341
  H         0.6064622374       -2.2851009351       11.1569488471
  H        -1.0984193651       -3.1827847770       12.5074512022
  H        -1.0338001914       -3.1676053879       14.8644546818
  H         1.0498982142       -2.1062706476       16.0090101590
  C         2.9417954589       -1.2800086279       10.6424428463
  C         3.7634080952       -2.3203921481       10.1504676674
  C         3.7688352753       -2.6184065299        8.7463695974
  C         2.8888823669       -1.9636795076        7.8708055458
  C         2.0013751434       -0.9892979956        8.3912154215
  C         2.0341987807       -0.7076885591        9.7388030414
  H         1.3322176877        0.0333239856       10.0751562877
  H         1.2451834695       -0.4976352208        7.8031487477
  H         2.9067266251       -2.2255941217        6.8751337621
  H         4.3381718313       -3.4545379099        8.3970893007
  H         4.4730663029       -2.9182521316       10.7266615316
  C        11.2932362839       -0.0665304764       14.0713980180
  C        12.4353886224        0.5330388440       14.7637617521
  C        13.5257571493        1.0290604231       14.0517892798
  C        14.7448056256        1.5933336253       14.6174950704
  C        15.7005616706        2.2646338610       13.9049570567
  C        12.3738675020        0.7466347310       16.2359145102
  C        11.4117108514        1.6195865479       16.7288214941
  C        11.2946057343        1.8437259794       18.1533960497
  C        12.1653558130        1.2176012490       19.0580691812
  C        13.1576264959        0.3489881845       18.5785559139
  C        13.2446504281        0.0864882205       17.2038987110
  H        14.7925132219        1.5191407993       15.6671259971
  H        16.6524823440        2.6766333126       14.3521373602
  H        10.5774399514        1.9147096048       16.0697405775
  H        10.6080478136        2.5854855720       18.5014255821
  H        11.9936177171        1.2874799275       20.1354271565
  H        13.8111178494       -0.1819620788       19.2729208248
  H        13.9684153932       -0.6529930408       16.8801489071
  C        11.2811346799       -0.0798364095       12.6076557945
  C        10.2751508320       -0.7938391242       11.8761192421
  C         9.1357708933       -1.2634746024       12.6369170288
  C         9.1857120758       -1.4185043151       14.0367930387
  C        10.3481942679       -0.9010601427       14.7086987693
  C        13.4160278097        1.1414501329       12.5945067846
  C        12.3154802987        0.6461428059       11.9192701311
  C        12.1917287280        0.9938361360       10.4684743965
  C        11.1792900849        1.8724946210       10.0474407101
  C        11.0342176784        2.2377656876        8.6689449787
  C        11.8755790412        1.7050456406        7.6511970567
  C        12.8912830935        0.8427476169        8.0133178702
  C        12.9886859802        0.4847457509        9.3867693337
  H        13.8125318469       -0.1882042389        9.6644039891
  H        13.5434965295        0.3801452705        7.3098156447
  H        11.7996969699        2.0810542904        6.5960607390
  H        10.2625537475        2.9151010280        8.4056636959
  H        10.5366174427        2.4257580556       10.6859363669
  C        14.4727916223        1.8072513872       11.8958667528
  C        15.5006459032        2.4197332503       12.5059108955
  H        16.1245703631        3.1838685176       12.0755042360
  H        14.4273428683        1.8941192754       10.8367820925
  C        10.4677977345       -1.3378649044       16.1173153257
  C        11.4948492496       -2.2399584673       16.3956443117
  C        11.5623960764       -2.8048533994       17.6818284954
  C        10.6574638239       -2.5514783409       18.6775014846
  C         9.6512409254       -1.6256775351       18.3929618470
  C         9.5496566048       -1.0643372390       17.1486216485
  H         8.7371307476       -0.3938149566       16.8641629720
  H         8.8861889741       -1.3966967490       19.1531610572
  H        10.7175700456       -3.1813413746       19.5976490453
  H        12.3599485330       -3.5273562741       17.9539871429
  H        12.1938044740       -2.5062487256       15.5918856691
  C         8.0742037024       -2.0426898743       14.7640185735
  C         6.9857726356       -2.5011625392       14.0429368823
  C         6.9860337553       -2.3470868334       12.6412044761
  C         7.9898654208       -1.7482679062       11.9866670590
  H         7.9047006209       -1.6443963302       10.8963282227
  H         6.2072990187       -2.7676332256       12.0483657856
  H         6.2394941832       -3.1041037031       14.4855112490
  H         8.0867788099       -2.1567492509       15.8425195511
  C        10.3814997547       -1.2452222184       10.4918671348
  C        11.1665502071       -2.4145296770       10.2881313838
  C        11.2558105897       -3.0887946693        9.0051639877
  C        10.3393752976       -2.6780263806        8.0303487563
  C         9.4996439515       -1.6044772468        8.2982382536
  C         9.4978019588       -0.8411603569        9.4542512054
  H         8.7379074064       -0.0392588520        9.5884438070
  H         8.7464536693       -1.3631869669        7.5653943181
  H        10.2916008009       -3.0889322264        7.0211329296
  H        12.0104994992       -3.8517374764        8.8399688831
  H        11.9105987481       -2.7160211950       10.9891238509
