140

  C        12.6302449407        6.8417068359        2.4864327490
  C        11.5331779571        7.5709663108        3.0935698533
  C        10.3932482402        7.9785260105        2.4036926001
  C         9.2621010014        8.5087990543        3.0070521281
  C         8.1985666796        8.9920389934        2.2666715418
  C        11.6323213019        8.0980058849        4.4983539449
  C        12.5013090002        9.1389784863        4.8526126289
  C        12.4361199766        9.6883680698        6.1474072817
  C        11.6139473169        9.1418751774        7.1393275300
  C        10.8165324660        8.0704330793        6.8079062054
  C        10.7335161843        7.6119008751        5.4941571881
  H         9.0833439821        8.3838513064        4.0825248875
  H         7.2422589653        9.1269245997        2.7884098160
  H        13.1782758449        9.5828144819        4.1873104190
  H        13.1442046958       10.4435810597        6.4831844672
  H        11.5715617849        9.5586240642        8.1229391337
  H        10.1262100364        7.6049660929        7.5280719137
  H        10.1548335757        6.7463490781        5.2891115727
  C        12.6394144878        6.7945347339        1.0320146949
  C        13.6217060409        6.0603639442        0.3321066571
  C        14.7517861504        5.5452572000        1.0876962543
  C        14.7843014684        5.6258502237        2.5367500402
  C        13.6824481935        6.1628528106        3.2204016652
  C        10.4465823587        8.0114851341        0.9791619104
  C        11.6158876391        7.4760155721        0.3359205449
  C        11.7958691419        7.9973161217       -1.0949174382
  C        12.7360826904        8.9898625371       -1.3386207930
  C        12.9054942502        9.5811204801       -2.6100593195
  C        11.9952356068        9.1955851427       -3.6647896890
  C        11.0600679755        8.1962141181       -3.4407817310
  C        10.9230377939        7.6196402634       -2.1628649328
  H        10.2074751955        6.8373489638       -1.9683371947
  H        10.2892600660        7.9184227223       -4.2359503097
  H        12.0617041729        9.7904957738       -4.5920871554
  H        13.5394096474       10.4646585128       -2.6595699961
  H        13.5461783415        9.1950716349       -0.6381720798
  C         9.4186229956        8.6267055028        0.2302610625
  C         8.2577281584        9.0676690806        0.8368558287
  H         7.4202080790        9.5868749904        0.3357096675
  H         9.4657360702        8.7943269495       -0.8131164622
  C        13.6873304802        5.8770482579        4.7010317489
  C        12.8968497477        4.8464054068        5.2855885671
  C        12.9934649408        4.5622708838        6.6589766967
  C        13.8698843901        5.3180216734        7.4857655617
  C        14.7192390160        6.2598018888        6.8674813365
  C        14.6080175759        6.6067329381        5.4578050206
  H        15.2463978622        7.3550009054        4.9810804544
  H        15.3546631810        6.8694708561        7.5552670347
  H        13.9191077237        5.2515632104        8.5819765614
  H        12.4684893671        3.6563263336        7.0488309477
  H        12.1561158493        4.3185408581        4.6610904728
  C        15.9526251155        5.1107206544        3.2431830295
  C        16.9645099056        4.5135194394        2.4732398886
  C        16.9068481457        4.4194338402        1.0724178883
  C        15.8377515108        4.8864369334        0.3565637073
  H        15.8506787680        4.7961305200       -0.7024365240
  H        17.6627226061        3.8379448551        0.5856452440
  H        17.8717356479        4.0712075438        2.8531524691
  H        16.0915417471        5.1718200698        4.2967762615
  C        13.5175701078        5.6868608990       -1.1259892550
  C        12.5104342187        4.8149096633       -1.6451497850
  C        12.5018919514        4.4957207676       -3.0280113974
  C        13.3838696919        5.1303417731       -3.9512175106
  C        14.3605369749        6.0291121284       -3.4053759152
  C        14.3614791724        6.2887897819       -2.0608352331
  H        15.1878756294        7.0083617276       -1.7096346724
  H        15.0463185606        6.5596665752       -4.1360626271
  H        13.4113638796        4.8052053213       -4.9986961922
  H        11.7414502140        3.7389449506       -3.3489364429
  H        11.8758847804        4.2036288664       -1.0151834266
  C        19.6937554355        7.0083129051        2.7118391490
  C        18.6317550459        7.7094009329        3.4719789259
  C        17.6211295725        8.3812683063        2.7474472057
  C        16.5664874991        9.1432180403        3.4332786523
  C        15.6130046497        9.8193296941        2.6875303459
  C        18.7849437266        8.1869921031        4.8822095294
  C        19.7795235100        9.1659129256        5.2333788680
  C        19.9280003869        9.5448514311        6.5628189808
  C        19.0264597991        9.1633529117        7.5295617165
  C        18.0593498471        8.2715733713        7.1280793474
  C        17.9363340139        7.8082122078        5.8611543551
  H        16.5916679975        9.1577684957        4.5217129399
  H        14.8530659939       10.4397904724        3.2252228284
  H        20.4745779394        9.4061311090        4.4787371089
  H        20.7276467063       10.1984144837        6.7860166376
  H        19.0911064899        9.4849436910        8.5321453147
  H        17.4101163834        7.7985146317        7.9072360370
  H        17.1571834910        7.0716877065        5.7347937814
  C        19.6407249607        6.9423552826        1.2172598061
  C        20.6123525611        6.1472933606        0.4715978570
  C        21.7688427872        5.7231131453        1.1815381832
  C        21.8349146887        5.7669415189        2.6336463066
  C        20.7238865349        6.2790051801        3.3418289152
  C        17.6582995233        8.3504833315        1.3322601910
  C        18.6491182201        7.6993060069        0.5786010713
  C        18.8519513739        8.0696669405       -0.8408684775
  C        19.9595268915        8.9688746338       -1.0526102802
  C        20.1026364919        9.4458063174       -2.3720036627
  C        19.1681748899        9.1405497151       -3.3372299009
  C        18.1451489106        8.2315375973       -3.1325444985
  C        17.9877288504        7.6895796664       -1.8180363733
  H        17.2142114480        6.9647314482       -1.5446851977
  H        17.4610120489        7.8883097816       -3.8382471157
  H        19.2622479464        9.6410272407       -4.3254870511
  H        20.8088387602       10.2648292482       -2.6188409658
  H        20.6737576000        9.1062346042       -0.2706612316
  C        16.7138340741        9.1904293615        0.5624394966
  C        15.6582136501        9.8218463216        1.2447745465
  H        14.8895339642       10.4151716311        0.7113096895
  H        16.6108014240        9.1143695774       -0.5395801268
  C        20.6856309687        5.9313134193        4.8148937790
  C        19.7594291276        4.9700213028        5.2613682871
  C        19.7128089779        4.6661396677        6.5978087799
  C        20.6828641358        5.1481946462        7.4944642936
  C        21.6654682964        6.0467026315        7.0277286518
  C        21.6721189460        6.4554650870        5.6752858187
  H        22.3308233586        7.2667730914        5.3811921035
  H        22.2483357905        6.5520664117        7.7639031430
  H        20.6519563695        4.9619831406        8.5592947685
  H        18.9101496548        3.9787281156        6.8415739527
  H        19.0463181565        4.6386471710        4.5120156816
  C        22.9598059698        5.1572070644        3.2376126507
  C        23.9715664338        4.5638075791        2.5891069570
  C        23.9100983836        4.4806890079        1.1132308435
  C        22.8408065310        5.0755025613        0.4911007175
  H        22.6312705402        4.8605368974       -0.6002102543
  H        24.5504681970        3.8150130513        0.4984642108
  H        24.6987411425        4.0228283310        3.1693402451
  H        22.9886432455        5.2502081808        4.3503936817
  C        20.5485135552        5.8414338211       -0.9769244549
  C        19.6308348341        4.8506856171       -1.4497718746
  C        19.6315391402        4.4346154084       -2.7946078923
  C        20.5434033201        4.9169276476       -3.7127547822
  C        21.4938857182        5.8584915282       -3.2775101245
  C        21.4594429250        6.3119180753       -1.9710967489
  H        22.1787791430        7.1020270245       -1.6509279050
  H        22.2009482797        6.3503358731       -3.9520391671
  H        20.5020663161        4.5973051087       -4.7459586636
  H        19.1470317275        3.5189847113       -3.0383444650
  H        18.9641362475        4.3591718356       -0.7588986242
