140

  C         4.7307383284       -0.0051409316       16.2149686093
  C         5.7942433442        0.6620125680       16.8873514546
  C         6.7870763446        1.2532342414       16.1358935989
  C         7.6344190021        2.1747708796       16.7496104892
  C         8.7382978161        2.6693622801       16.0958115393
  C         5.7972253248        1.0780315127       18.3454658402
  C         4.9133856113        2.0809275003       18.7929888631
  C         5.1127112822        2.6161187556       20.0467901224
  C         6.1357643425        2.0371690826       20.8866457100
  C         6.8711441988        0.8940808518       20.5153620539
  C         6.7198562617        0.4030031982       19.2069517102
  H         7.6910842751        2.2993305091       17.8039041531
  H         9.3302572150        3.3769882962       16.6377154447
  H         4.1073842558        2.4331494882       18.1053348439
  H         4.4733725370        3.3729519770       20.5574176692
  H         6.2332447720        2.4672468192       21.9365021911
  H         7.5544624834        0.5066607043       21.2449677314
  H         7.3745890490       -0.3072440885       18.7524663937
  C         4.7098616928       -0.0203981269       14.7042426856
  C         3.5695217276       -0.6429407371       14.0621998207
  C         2.5061760743       -1.2888640966       14.7902738864
  C         2.5496759390       -1.2490167840       16.2205066998
  C         3.6670722637       -0.6940671650       16.9156435493
  C         6.8845650947        1.0707644951       14.7330063382
  C         5.7947085948        0.5697663423       13.9239408804
  C         5.7711981998        1.0662304239       12.4914377560
  C         5.0695613115        2.2373885285       12.3075771179
  C         4.9845035307        2.8090443845       11.0222641855
  C         5.8006193796        2.3432566176        9.9591627581
  C         6.5394861870        1.2076968198       10.1863674256
  C         6.4589629581        0.4801914166       11.3706612265
  H         6.9907897810       -0.4693684468       11.4690396049
  H         7.2624964078        0.9691720771        9.4611639390
  H         5.7454983789        2.7819331899        8.9737283325
  H         4.3539510848        3.6710301531       10.8904577427
  H         4.5879327517        2.7144718298       13.2133909999
  C         8.0549413163        1.5702125190       14.0367743915
  C         8.9931709832        2.3228136355       14.7406995614
  H         9.8571792437        2.8066660007       14.3111727752
  H         8.1834076385        1.2854329200       12.9984911002
  C         3.7669349532       -0.9810945191       18.3808749915
  C         4.4250853911       -2.1668469051       18.7161226096
  C         4.6610068005       -2.5118033373       20.0794388524
  C         3.9545058360       -1.8053884528       21.0388934185
  C         3.1011469937       -0.7114906260       20.7096907811
  C         3.0787428395       -0.2558523811       19.3917326658
  H         2.4360843979        0.5056509661       19.0538888972
  H         2.5147903926       -0.3214282576       21.4896328031
  H         3.7792993385       -2.1880114965       22.0517640277
  H         5.3450668722       -3.3159805105       20.3506949131
  H         5.0062921272       -2.7885619833       17.9744909737
  C         1.4413809737       -1.7868798298       16.8919216090
  C         0.4742524256       -2.4982703994       16.2853869403
  C         0.3683903347       -2.5347941353       14.8767711657
  C         1.3847244107       -1.9447636989       14.1710172485
  H         1.3477680535       -1.8110129249       13.1189232448
  H        -0.4384452190       -3.1084850821       14.4801830784
  H        -0.2894003243       -2.8049800916       16.9749316112
  H         1.4445682688       -1.6834840452       17.9469954009
  C         3.6175857015       -0.9486241050       12.5751838474
  C         4.3644617871       -2.0843829066       12.2912305353
  C         4.4017465149       -2.6237205384       10.9734546514
  C         3.7617863360       -1.9375421276        9.9159203032
  C         3.0466082589       -0.8240480119       10.2007780750
  C         2.9566518255       -0.1953725336       11.5047261502
  H         2.4325645321        0.7293056204       11.6266531818
  H         2.5458920906       -0.4101751372        9.3376142597
  H         3.8736755604       -2.2594602651        8.8877410080
  H         5.0347499724       -3.4956734018       10.7404916528
  H         4.9278664193       -2.5634687289       13.0805698820
  C        12.0641239055       -0.1256127294       15.9009054441
  C        13.0436119770        0.6583466326       16.5418118218
  C        14.0923817678        1.2123773706       15.7488376808
  C        15.2965495370        1.7072009444       16.2471502224
  C        16.3228813028        2.1586092884       15.4520619863
  C        13.0820159858        1.0850570149       17.9825956019
  C        12.3314187464        2.2229919336       18.4096790553
  C        12.2492468261        2.5027232944       19.7532784555
  C        13.0930013448        1.8657939684       20.6108968926
  C        13.9499872724        0.8465003518       20.2182961866
  C        13.8858267886        0.3931354518       18.8813652772
  H        15.4180517546        1.5467434336       17.3106571857
  H        17.2560013426        2.3400237774       16.0113322278
  H        11.6698067365        2.7912072007       17.7676221035
  H        11.4852535963        3.2461735783       20.0425084230
  H        12.9764891165        2.0075863097       21.6933864570
  H        14.4931962099        0.2376794777       20.9811072708
  H        14.4025093281       -0.4839531992       18.5407666973
  C        11.8583537138        0.0114031977       14.4466114394
  C        10.9793772253       -0.8504002140       13.8278500652
  C         9.9030111402       -1.4932771204       14.5625226110
  C         9.8837588926       -1.4241931152       16.0097713921
  C        11.0622959967       -0.8899971530       16.6474535262
  C        13.9548342027        1.3744587966       14.3228761058
  C        12.7668678644        0.8484058699       13.6925902772
  C        12.7408208665        1.0603846565       12.1896218515
  C        12.1431619369        2.2226446671       11.6130101199
  C        12.2093798192        2.4723178355       10.2506516529
  C        13.0935427890        1.7270821885        9.4515771000
  C        13.8073301112        0.6385110426       10.0178218755
  C        13.6078659640        0.3053051833       11.3845194542
  H        14.1936965235       -0.5042103326       11.7613106082
  H        14.5883343741        0.1798336865        9.3986954766
  H        13.1066003252        1.8646286677        8.3833990021
  H        11.6098224152        3.2825669450        9.8662069689
  H        11.4678633380        2.7590317256       12.2673102575
  C        14.9371453136        2.0353143035       13.5239245771
  C        16.1603557880        2.3795663443       14.0692506638
  H        16.9959644701        2.9252998561       13.5765096562
  H        14.7262148020        2.2675276440       12.4345512692
  C        11.2191071980       -1.2376237932       18.0903379535
  C        12.1117089078       -2.3299145213       18.2792517199
  C        12.1514039834       -2.9885788664       19.5055565451
  C        11.4086032258       -2.3894610200       20.5466346699
  C        10.5605595121       -1.3144007056       20.3842775426
  C        10.4259849709       -0.7661266606       19.1613813947
  H         9.6633998136        0.0196112460       19.0132088658
  H         9.9973345510       -0.9602355621       21.2138248425
  H        11.6589957373       -2.7648590356       21.5534203030
  H        12.7928608677       -3.8585714307       19.7624710479
  H        12.6289766530       -2.6984164481       17.4011397950
  C         8.7643096352       -1.9964472565       16.7286986478
  C         7.6646057765       -2.4095421652       16.1059414861
  C         7.6976779524       -2.4527131858       14.6633434199
  C         8.7720642446       -2.0504681842       13.8864905874
  H         8.7355894137       -1.9914269315       12.8128080546
  H         6.7610175496       -2.7709002018       14.1576227130
  H         6.7205881898       -2.7647333298       16.5266564110
  H         8.8337173612       -2.0112956417       17.8117588184
  C        11.0125898153       -1.2779789096       12.3924719220
  C        11.8862669084       -2.2992707246       12.0365651403
  C        11.7332302939       -2.8472419702       10.7113411152
  C        11.0362465432       -2.1314473778        9.6698711187
  C        10.2353035294       -1.0510315907       10.1323236265
  C        10.1587699062       -0.6487505323       11.4175894060
  H         9.4777763072        0.1824227241       11.6215009986
  H         9.5887272213       -0.4661070529        9.4808379481
  H        11.0415128233       -2.4451471732        8.6491481648
  H        12.3068412425       -3.7657503939       10.5970388621
  H        12.5456646082       -2.8123279918       12.7613836293
