140

  C         4.6746847922       -1.2796296726       13.8681448326
  C         5.6921758262       -0.5424766271       14.5725265204
  C         6.8304520658       -0.0657368518       13.9086006783
  C         7.9158725293        0.7709125082       14.5304395752
  C         8.9190628453        1.3309637788       13.7922915441
  C         5.7168953317       -0.3554799385       16.0441257439
  C         4.7261948557        0.4710541987       16.5234486310
  C         4.7842226380        1.0585848351       17.7810452776
  C         5.8115361152        0.5692268973       18.7010588842
  C         6.6304519448       -0.4967169572       18.3144779294
  C         6.5987980703       -0.9268850938       16.9616740132
  H         7.8043333097        0.9161057563       15.5976010304
  H         9.5183829095        2.0741352840       14.3276131583
  H         3.9003017938        0.8919815021       15.8664214469
  H         4.0839873373        1.8226203055       18.0552903821
  H         5.9506376561        0.8977600143       19.7288400333
  H         7.3344519278       -0.8856205197       19.0870932532
  H         7.3037069217       -1.7522230399       16.6264866369
  C         4.6844078529       -1.2999930531       12.3598820642
  C         3.6250300482       -1.8955551019       11.6960134664
  C         2.5615792873       -2.5635134501       12.3689329428
  C         2.6197276478       -2.6426979922       13.7995351726
  C         3.6482771325       -2.0261624124       14.5828794364
  C         6.8416006007       -0.0986715749       12.4108428186
  C         5.7358416737       -0.6355705007       11.6827848605
  C         5.7837182851       -0.1582438887       10.2917208925
  C         5.3008214065        1.1272924168       10.0178985037
  C         5.3278663667        1.6255252481        8.7153620335
  C         6.0081614862        0.9725857427        7.6848068101
  C         6.6468971375       -0.1810557208        7.9752290345
  C         6.5473741662       -0.7552422705        9.2805336459
  H         7.1091668498       -1.6978539377        9.4194425895
  H         7.2366426157       -0.5748419029        7.1299808693
  H         6.1706364165        1.4561132696        6.7146202794
  H         4.8554918273        2.6534540308        8.5892291565
  H         4.8193530707        1.6873433343       10.8339037121
  C         8.0184490157        0.4249509166       11.7383551819
  C         8.9873454039        1.0972186128       12.4331537437
  H         9.9341249889        1.2177279861       11.8930910743
  H         8.1968571950        0.3485220453       10.6922572842
  C         3.6614062942       -2.4297282663       16.0665331607
  C         4.7082134198       -3.1726725089       16.5943922862
  C         4.7438476160       -3.5017163699       17.9731344544
  C         3.7084298774       -3.1361086161       18.8291609929
  C         2.6533662942       -2.3392413126       18.2967790413
  C         2.6723442434       -2.0116137765       16.9220140416
  H         1.8293545343       -1.5549970530       16.4775576554
  H         1.8915453658       -1.9153753007       18.9735160713
  H         3.7347672277       -3.3030509167       19.8988626072
  H         5.6207541637       -4.0315912483       18.3391064681
  H         5.5595866517       -3.3636633597       15.8867618631
  C         1.5408322279       -3.4181571696       14.4958616671
  C         0.6168272403       -4.0769049392       13.8102103762
  C         0.6214889255       -4.0437718943       12.4222196958
  C         1.6075110087       -3.3768659525       11.7127321489
  H         1.5884378608       -3.4421688712       10.6283157262
  H        -0.1468331651       -4.6496189579       11.9494520167
  H        -0.1768851709       -4.4757422749       14.3525697906
  H         1.5966828793       -3.3900161266       15.5939818646
  C         3.6656479468       -2.1653991708       10.1875365008
  C         4.4096199634       -3.3332119320        9.8649387806
  C         4.4588293666       -3.7536373911        8.5331159539
  C         3.8319744671       -3.0047993555        7.5411818905
  C         3.1400346848       -1.8363058459        7.8355885728
  C         3.1346240412       -1.4330266874        9.1723585341
  H         2.5454274088       -0.5605674042        9.4065129547
  H         2.5464247553       -1.2338825438        7.1066623147
  H         3.9567720697       -3.4278221312        6.5183235152
  H         5.0515149786       -4.5710603048        8.2821421074
  H         4.7953578707       -4.0279778480       10.5616569169
  C        11.9768526659       -1.0720828096       13.9072593021
  C        13.0072714944       -0.3546175615       14.6077333229
  C        14.0998634575        0.2788257416       13.9099820992
  C        15.2896076676        0.8404272819       14.5070912513
  C        16.2977929502        1.3340749339       13.7604143048
  C        12.9987299499        0.0385520763       16.1470862847
  C        12.2525682327        1.1021678493       16.5858051663
  C        12.2931492973        1.4274296938       18.0153472716
  C        13.0417022219        0.6508438215       18.9495722787
  C        13.8173999076       -0.3816023660       18.4336478393
  C        13.7191538095       -0.7060666154       17.0566607171
  H        15.4121365194        0.7916545056       15.5613794704
  H        17.2034394740        1.8508729523       14.1432393326
  H        11.9025402149        1.8059434706       15.9398161889
  H        11.6249059381        2.2190474446       18.3184809129
  H        13.0536097571        0.8183907967       20.0210968069
  H        14.4159781676       -1.0638942714       19.0209244932
  H        14.1496066328       -1.6320447048       16.7632459889
  C        11.8986582393       -1.0989754607       12.3888056745
  C        10.8097870251       -1.7777250872       11.7130132289
  C         9.8044589338       -2.3715190193       12.5173889408
  C         9.9289583456       -2.4147599362       13.9943905448
  C        11.0183424471       -1.7787459641       14.6920744471
  C        14.0530148740        0.1713228120       12.3747500763
  C        12.9157875096       -0.4202704580       11.6755454008
  C        12.8642289473       -0.1793972295       10.1783494015
  C        12.2653068052        0.9934188796        9.6945815278
  C        12.4035025325        1.4220080011        8.3677663497
  C        13.2309270051        0.6813224741        7.5009727426
  C        13.9205098911       -0.4405347847        7.9932590283
  C        13.6716172068       -0.9031332564        9.2854380959
  H        14.1527864887       -1.8081750243        9.6591814951
  H        14.5144745563       -1.1006921088        7.3036442302
  H        13.3591770879        1.0333815718        6.4281535611
  H        12.0072535103        2.3804215818        8.0475902168
  H        11.7312941850        1.6540769074       10.3612773939
  C        15.1038357791        0.7815125730       11.6436861792
  C        16.2108724553        1.3013213082       12.2737881254
  H        17.0105587306        1.8232289755       11.7765917771
  H        15.0182454293        0.8345611504       10.5588621404
  C        11.1941978005       -2.0894863660       16.2079598029
  C        11.8438010663       -3.2626118320       16.5589904754
  C        11.9099716678       -3.7045269311       17.8744773992
  C        11.1292775665       -3.1326031544       18.8708717652
  C        10.3542606953       -1.9958626199       18.5096810418
  C        10.4861554794       -1.4250661367       17.2523791843
  H         9.9981775097       -0.5204302509       16.9654445492
  H         9.8086262847       -1.5760028972       19.2976107039
  H        11.1479883930       -3.5301458320       19.8986941533
  H        12.3798042963       -4.6323369992       18.0878833282
  H        12.4092716454       -3.7918804940       15.8065581314
  C         8.8523460146       -3.0607765905       14.6609373201
  C         7.7755542126       -3.6758731180       14.0366827276
  C         7.6672067905       -3.5754124210       12.6616290467
  C         8.7093079920       -3.0741946928       11.9271501068
  H         8.6866727337       -3.1273456540       10.8782507189
  H         6.8167254950       -4.0337084224       12.1447342996
  H         6.9873408796       -4.0695354792       14.7116911372
  H         8.9453502181       -3.2067346537       15.7335852468
  C        10.8648143379       -2.0238524299       10.2533705269
  C        11.4891269157       -3.1828503003        9.7448126697
  C        11.4610817141       -3.6282468384        8.4234753471
  C        10.7203681232       -2.8825730652        7.4481786384
  C        10.0940233272       -1.6967152119        7.8783110932
  C        10.2399453164       -1.2526467607        9.2691241995
  H         9.7680802657       -0.2664136912        9.5011675181
  H         9.5021537248       -1.0204176165        7.2600529152
  H        10.7246757395       -3.1604355213        6.3792439999
  H        12.0568062589       -4.4448734009        7.9879307012
  H        12.1503724221       -3.7687377009       10.4550076142
