140

  C         8.7443929744        8.3632635045        1.5609372150
  C         7.6922729473        9.0160097746        2.3136998298
  C         6.5527807699        9.5671345958        1.6145458782
  C         5.5205426027       10.2148608238        2.3613535443
  C         4.3935535901       10.7200778234        1.6866191367
  C         7.7006451377        9.2980974742        3.7495262634
  C         8.5806469342       10.3357673256        4.1860221762
  C         8.6016555371       10.7598043282        5.5119565529
  C         7.8322809701       10.1255871216        6.4709488358
  C         6.9826407069        9.0313105506        6.0826848546
  C         6.9026569351        8.6855750122        4.7287637628
  H         5.6617611176       10.4334738228        3.3975222515
  H         3.6995739174       11.2658863818        2.2787767811
  H         9.3122194604       10.7309634011        3.4935171296
  H         9.2181360571       11.6073953855        5.7708971442
  H         7.8321980622       10.4643049651        7.5372235035
  H         6.4012350513        8.4489482257        6.8014539656
  H         6.1057304681        8.0394053628        4.4404360456
  C         8.6675316894        8.3632629042        0.0982618185
  C         9.7318249406        7.7796594534       -0.5893386890
  C        10.8206023658        7.1756653994        0.0373869022
  C        10.8568914960        7.1648245360        1.4633159615
  C         9.8347339914        7.7075235906        2.2394496337
  C         6.4765594139        9.5124151282        0.1923249018
  C         7.5786845930        9.0245151198       -0.5439947168
  C         7.4385723886        9.2214216143       -2.0612337790
  C         8.1242302810       10.2170039090       -2.7290445495
  C         8.0366374838       10.3656852995       -4.1170807939
  C         7.2027648130        9.4966997572       -4.8093865715
  C         6.3736445414        8.6460542613       -4.1289066976
  C         6.4621045788        8.5386342371       -2.7523196549
  H         5.8057353349        7.8220280384       -2.2537596377
  H         5.6932707980        7.9340523466       -4.6228340249
  H         7.1688884411        9.6650529214       -5.9344302481
  H         8.5525945602       11.1600514703       -4.6169368550
  H         8.9422988573       10.6704324686       -2.1450231606
  C         5.3261704492       10.1463527021       -0.3816873267
  C         4.2830913623       10.6387981515        0.2964747203
  H         3.4484825224       11.1625536169       -0.1980719125
  H         5.1432607437       10.1925119050       -1.4475506670
  C         9.8330474861        7.3863494439        3.6904513970
  C         8.9039092823        6.3915200374        4.1975498459
  C         8.7531368995        6.1442292613        5.5911166562
  C         9.6464925466        6.7984456547        6.4742213146
  C        10.7180878222        7.5396369475        5.9686507100
  C        10.6669925729        7.9540005013        4.6502240732
  H        11.4688783205        8.5729173193        4.2161068447
  H        11.3426595078        7.9570991124        6.7306151009
  H         9.4740098909        6.4734662837        7.5116656341
  H         7.9973814509        5.4554957347        5.9850806192
  H         8.1924734203        5.9685215367        3.5044090809
  C        11.9560182485        6.5858332152        2.0962573554
  C        12.9690825885        5.8958959129        1.5063851840
  C        12.9546621329        5.8738680639        0.0587455101
  C        11.8866805399        6.4845341550       -0.6166122777
  H        11.7241535652        6.3561742631       -1.7157514077
  H        13.6996703982        5.2614971371       -0.4879690149
  H        13.6503402513        5.2600107396        2.1100747547
  H        11.9540853114        6.5891682973        3.1700494542
  C         9.6060890574        7.4368407352       -2.0277337055
  C         8.9288737484        6.2847857301       -2.4199582287
  C         8.8385899186        5.7256509640       -3.6681467274
  C         9.6228860773        6.3717343582       -4.6357588283
  C        10.3700588729        7.5089129711       -4.2684638210
  C        10.3772009880        8.0618689558       -2.9619715613
  H        11.1143544124        8.8781571422       -2.7887809052
  H        10.9776930734        8.0035777056       -5.0626618635
  H         9.6101361992        6.1475934095       -5.7209615182
  H         8.2660203114        4.8061138372       -3.7788558008
  H         8.4243163590        5.7776451969       -1.6053358198
  C        15.9346802397        8.1396430582        1.4310912499
  C        14.8754451245        8.8573882011        2.0843340705
  C        13.8330322371        9.4282915672        1.3921458971
  C        12.6436964101       10.0471827538        1.9903318739
  C        11.5788528433       10.5710477367        1.2839210683
  C        15.1041703881        9.3412151782        3.5324981483
  C        16.2218896769       10.1664505881        3.8234349281
  C        16.3559734901       10.7958349098        5.0375970075
  C        15.4751273818       10.4926303380        6.1065631839
  C        14.3840557225        9.7414747286        5.8397472833
  C        14.2255803926        9.0418030186        4.5877593953
  H        12.6681142235       10.1780292976        3.0622448057
  H        10.6895010920       10.9676285128        1.7145144949
  H        16.9099421330       10.3439759227        3.0270086402
  H        17.2273344211       11.4038016073        5.1991448159
  H        15.6353133912       10.8278608239        7.1142309207
  H        13.6785250083        9.6411479872        6.5862605067
  H        13.3917869075        8.3626922845        4.3629291177
  C        15.9803368815        8.0958218294       -0.0778802536
  C        16.9975784318        7.2890968104       -0.6779481886
  C        18.0836112456        6.7534304441        0.1235866165
  C        17.9950359087        6.8287158517        1.5764690755
  C        16.9282448429        7.4804309938        2.1934395067
  C        13.8085697923        9.3835983804       -0.0590021382
  C        14.9084874644        8.8181824711       -0.8261476927
  C        14.9834787431        9.1643770635       -2.2830432237
  C        15.8357471678       10.2572775055       -2.7109607752
  C        15.7132649336       10.7603321201       -4.0110327390
  C        14.8117355246       10.1408162830       -4.8684121700
  C        13.9698238968        9.0756493110       -4.4425453482
  C        14.1678513978        8.5117487949       -3.1924830346
  H        13.5661403228        7.6423242111       -2.9644891209
  H        13.3156461203        8.6581906350       -5.1507277404
  H        14.6022065977       10.5344359896       -5.8579416568
  H        16.3564733117       11.6297720525       -4.2720635418
  H        16.5360750132       10.7178137523       -2.0375943002
  C        12.7291954692       10.0220824491       -0.7579681669
  C        11.6456311970       10.4930653125       -0.1019283304
  H        10.7932374806       10.9434737805       -0.5835370500
  H        12.7774876762       10.0539955778       -1.8055020264
  C        16.7340904599        7.1282931270        3.6949775844
  C        15.7574694257        6.0823639626        3.9937857924
  C        15.8263182003        5.4423645392        5.2403304111
  C        16.7848509885        5.8590455257        6.2289871998
  C        17.7240649179        6.8643131819        5.8799737551
  C        17.5694250519        7.5574908679        4.6849671715
  H        18.3566795909        8.2177217450        4.4403369024
  H        18.3763767625        7.3169979645        6.5954338075
  H        16.9050735290        5.2801290981        7.1649027256
  H        15.1401734012        4.6950264380        5.5279196147
  H        15.2053277341        5.6964934418        3.1874844238
  C        18.8937343844        6.0115909539        2.3487180672
  C        20.0140326811        5.5069946204        1.7508716618
  C        20.2276274440        5.5619428888        0.3374873370
  C        19.2749797453        6.1164408994       -0.4620024409
  H        19.4014274590        6.0249278719       -1.5724622421
  H        21.1576670273        5.2172230651       -0.0681558245
  H        20.7611133273        5.0578533873        2.3520774397
  H        18.7086371358        5.9750462052        3.4227952733
  C        16.8899866722        6.8277122685       -2.0714868206
  C        16.2157685749        5.6371134795       -2.3913474235
  C        16.2358387460        5.2330667847       -3.7307349838
  C        16.9509293144        5.9172432526       -4.7356326050
  C        17.6654677854        7.0795805060       -4.4147792273
  C        17.6435325503        7.5617244756       -3.0940509323
  H        17.9729256737        8.5522335739       -2.8711922422
  H        18.2411169517        7.6587320360       -5.0934569661
  H        16.8506016163        5.5838766821       -5.7876632700
  H        15.6943229692        4.3356256968       -3.9982250994
  H        15.5056416620        5.3418961038       -1.6647326874
