140

  C        11.5002697520        6.7687164560        0.6987466601
  C        10.5054394897        7.5320708398        1.4086253666
  C         9.3955315307        7.9990521707        0.6580366550
  C         8.2295459589        8.5681511254        1.2908544591
  C         7.1620406521        9.0836855760        0.5280979599
  C        10.4519458404        7.7449180761        2.8912068377
  C        11.3200584450        8.6599588004        3.5525572534
  C        11.1782069935        8.9704633255        4.9188687096
  C        10.3064840341        8.1991664890        5.6777760599
  C         9.5283091830        7.2097305691        5.0354965769
  C         9.6174348672        6.9647854546        3.6307981271
  H         8.1686928701        8.7673779360        2.3279408785
  H         6.3336056414        9.5085493308        1.0286875318
  H        12.1418492568        9.2078973607        2.9610739576
  H        11.8071497904        9.7185100999        5.4700732138
  H        10.1619744672        8.3283468653        6.7809581932
  H         8.8267457523        6.5857996314        5.6371193118
  H         9.0896634336        6.0759195797        3.1849073593
  C        11.5427481063        6.7237094003       -0.7577970833
  C        12.6687378424        6.0682486148       -1.4427886800
  C        13.6754401755        5.4738270891       -0.6401043685
  C        13.5086126730        5.2925810485        0.7752988524
  C        12.4170598542        5.9705864293        1.4701120290
  C         9.3303424224        7.8551868439       -0.8141602938
  C        10.4747116172        7.3232372326       -1.5337195496
  C        10.6171691139        7.6571184730       -2.9664802688
  C        11.5977144341        8.6291986457       -3.2939322714
  C        11.7223524630        9.0973788653       -4.6519040363
  C        10.7412821902        8.7150629313       -5.6443096689
  C         9.7876923029        7.7578171810       -5.2884061479
  C         9.7582647570        7.1964925445       -4.0028615848
  H         9.0996086788        6.4074950560       -3.7145400422
  H         9.0675578587        7.3433419780       -5.9403936917
  H        10.8499613808        9.0810992515       -6.6680458545
  H        12.4954644338        9.7430411313       -4.9252959357
  H        12.3009965838        9.0722241498       -2.5463254108
  C         8.2689891318        8.3920760154       -1.5330579243
  C         7.1481413124        9.0047499422       -0.9205952685
  H         6.3023838055        9.5033626632       -1.4845818000
  H         8.3284546869        8.3714383533       -2.6573296315
  C        12.1893457388        5.4439145210        2.8587221455
  C        11.3418028557        4.3653811502        3.0329162723
  C        11.3242832101        3.6240111270        4.2804869737
  C        11.9889932617        4.1515247180        5.4092614947
  C        12.9295429581        5.2039393192        5.1708021413
  C        12.9544746365        5.8790193378        3.9281569670
  H        13.7625006612        6.5332676734        3.6997761381
  H        13.6172395537        5.4321844915        5.9750633922
  H        11.8320158014        3.7665965300        6.4012809534
  H        10.6720786554        2.8011923014        4.3519846462
  H        10.7524868560        4.0883326095        2.2154381596
  C        14.4648917474        4.3875159913        1.4228037989
  C        15.5540242835        3.8822527440        0.7121103144
  C        15.7180773861        4.1665420876       -0.6848537789
  C        14.7102864690        4.9108991379       -1.3422703311
  H        14.7798086897        4.9758605334       -2.4324704076
  H        16.6580080289        4.0067895170       -1.2189447103
  H        16.2016518116        3.2293856371        1.2784945089
  H        14.3082235864        4.1450070301        2.4281364339
  C        12.6028496859        5.6051255833       -2.8773039651
  C        11.7436085783        4.4827656680       -3.0282609598
  C        11.7015298864        3.7990212308       -4.2730207699
  C        12.4328010643        4.2480180067       -5.3934774145
  C        13.1932920171        5.4322006054       -5.2753200970
  C        13.2361819122        6.1533519559       -4.0540397381
  H        13.8123020557        7.0504308914       -3.8369530071
  H        13.8188626035        5.7193851990       -6.1214320370
  H        12.1381319612        3.7809815439       -6.3692149249
  H        11.0076997790        2.9936214290       -4.3954178684
  H        11.2363919085        4.0289706773       -2.1748051375
  C        18.8492667988        6.7606670995        0.7852729265
  C        17.8188803660        7.4479997998        1.4493784884
  C        16.7014073408        7.8571900214        0.7153701309
  C        15.5005662675        8.2443407898        1.4116431201
  C        14.5257353968        8.9870403042        0.7332494980
  C        17.8093076467        7.7592052741        2.8642549321
  C        18.6968802080        8.7451099559        3.3353151735
  C        18.6626765576        9.1204869074        4.7087255248
  C        17.7354823675        8.5702523448        5.6077030863
  C        16.8597161522        7.6001614934        5.1296731360
  C        16.9001598416        7.1552815884        3.7706225656
  H        15.3433445239        8.0510206812        2.4694300315
  H        13.5467328829        9.2753359256        1.1283584270
  H        19.4210478671        9.1454296758        2.6427573164
  H        19.3841420046        9.8749767899        5.0344484767
  H        17.6404292006        8.8145706567        6.6825027497
  H        16.0612655289        7.0904710307        5.6822125325
  H        16.3197040602        6.2807523282        3.4988127674
  C        18.8850374548        6.7162943934       -0.7599208951
  C        19.8587948407        5.9913281539       -1.4799689013
  C        20.9556321066        5.4319109398       -0.7894069575
  C        20.9819486481        5.4288108027        0.6673369477
  C        19.8849702137        6.0050002498        1.4031021081
  C        16.7433757595        7.9760165004       -0.7348082998
  C        17.8717096068        7.4596454927       -1.4784523633
  C        17.9926738037        7.9055963999       -2.8735823377
  C        18.7281354783        9.0865583108       -3.1804216740
  C        18.6623351361        9.6701507799       -4.4804991239
  C        17.9365495226        9.0181243271       -5.5090092198
  C        17.3345443693        7.8039505019       -5.2281681007
  C        17.3223922325        7.3080673040       -3.9629658596
  H        16.8453356929        6.3267889665       -3.8720862528
  H        16.8880691561        7.2243016518       -5.9941356561
  H        17.7571788980        9.3648028398       -6.5526970043
  H        19.1304246302       10.6343173932       -4.6662696800
  H        19.1964156240        9.7160865276       -2.4672577879
  C        15.7356915165        8.7925340332       -1.3243744045
  C        14.7210866737        9.3416709623       -0.6069600860
  H        14.0176814905        9.9792607571       -1.0985867275
  H        15.8586293266        8.9943636347       -2.3905895104
  C        19.8426663830        5.5773419287        2.8412012201
  C        18.9800498104        4.5149752094        3.1499384617
  C        18.9975846750        3.9434630839        4.4093930838
  C        19.7901535138        4.5169183520        5.4256325474
  C        20.7500318392        5.5313220771        5.0150625168
  C        20.7699553124        6.0835574951        3.7769222239
  H        21.5762118552        6.7256957793        3.5858106608
  H        21.5503835983        5.7294860834        5.7214270824
  H        19.6561729382        4.1135609057        6.4189476203
  H        18.3044562959        3.1661560502        4.6934236667
  H        18.2275422861        4.3347910084        2.3845269731
  C        21.9662444769        4.6624666413        1.3623330981
  C        23.0479412942        4.1437153847        0.6808532019
  C        23.0962069484        4.2527737295       -0.7282476793
  C        22.0410057807        4.8345417362       -1.4452757504
  H        22.0497193985        4.7406360890       -2.5354974835
  H        23.9274515232        3.7161480677       -1.1544614800
  H        23.7640857785        3.4821401538        1.1765119039
  H        21.8264197504        4.5520513197        2.4236410389
  C        19.7556395759        5.6872792273       -2.9810254007
  C        18.9166647613        4.6483624574       -3.2795975176
  C        18.6706731284        4.2423391825       -4.6146399365
  C        19.4265374003        4.8668233066       -5.6181995093
  C        20.3119713439        5.8465173382       -5.3175416638
  C        20.4302301389        6.3062928724       -4.0143723152
  H        21.1177753969        7.1437534918       -3.8007416870
  H        20.9338586318        6.4399428573       -6.0302411718
  H        19.4731848276        4.5376262650       -6.6829277574
  H        18.1158689434        3.2797013362       -4.8242840501
  H        18.5579926416        4.0528150346       -2.4794707656
