140

  C         5.1764098549       -1.5456501508       13.7156669613
  C         6.1903382288       -0.8217536930       14.4635008822
  C         7.2685799235       -0.2290685757       13.7486313736
  C         8.3463592889        0.4880109790       14.3633514757
  C         9.1986567096        1.2687732200       13.6089924010
  C         6.1032567497       -0.4861772447       15.8871576791
  C         5.5945313395        0.7389610931       16.3602418255
  C         5.5208240404        1.1260396082       17.7014407548
  C         6.0262210219        0.2489608894       18.6364907163
  C         6.6955529434       -0.9470285791       18.1634288456
  C         6.6976266813       -1.3423246918       16.8455979112
  H         8.4812317569        0.2780373020       15.4035920122
  H        10.0277300136        1.7948745067       14.1220516103
  H         5.1823322300        1.5369923492       15.6675476613
  H         5.1087013060        2.1001856460       18.0088003575
  H         6.0892795339        0.4950281773       19.6913660733
  H         7.3090975708       -1.5144465501       18.8028410451
  H         7.2523112969       -2.2094013236       16.5727966841
  C         5.0727533986       -1.4397402718       12.2166063133
  C         3.9864623806       -2.0545930440       11.5402174407
  C         2.8789514666       -2.5985504924       12.2597813003
  C         3.0894210637       -2.8770423726       13.6693809449
  C         4.2277827168       -2.3753773653       14.3590581464
  C         7.1603990248       -0.0952987513       12.2436023663
  C         6.0760438514       -0.6980679271       11.5538454948
  C         5.9375329265       -0.2710505412       10.1011014283
  C         5.0288980634        0.7231528648        9.8063234657
  C         4.9373294344        1.1731003021        8.4485408101
  C         5.7603184185        0.6618340720        7.4612151900
  C         6.6287654176       -0.4173852546        7.7362426270
  C         6.7698545825       -0.8570422579        9.0807506526
  H         7.4350756030       -1.6544541302        9.2842784317
  H         7.1782251554       -0.8435908976        6.9045350220
  H         5.7464314847        0.9714219186        6.4033755697
  H         4.2199306727        1.9425736837        8.1272882723
  H         4.4311716292        1.1832501261       10.6068289964
  C         8.1148471697        0.6697190216       11.5399067583
  C         9.1335201153        1.3237993847       12.1789798860
  H         9.8787329242        1.9284589935       11.6442319140
  H         7.9287521593        0.7882519059       10.4591647482
  C         4.2934810439       -2.7611371943       15.8085271235
  C         4.9121231117       -3.9170538075       16.2608295152
  C         4.8425707988       -4.3316034410       17.5947166082
  C         3.8213551329       -3.7758446154       18.3747788310
  C         3.0473012085       -2.7008294342       17.9218104380
  C         3.3374060897       -2.1742378109       16.6821654350
  H         2.8962108201       -1.2469726787       16.4234685531
  H         2.3207171581       -2.2251955976       18.5400095850
  H         3.6523746040       -4.0876200234       19.4193855395
  H         5.5405623541       -5.1595841893       17.8778243984
  H         5.6823101671       -4.4513515434       15.6032700645
  C         2.1304314351       -3.7398298898       14.3219858237
  C         0.9536226836       -4.1494615260       13.6681253385
  C         0.7231482163       -3.7062906142       12.3474548655
  C         1.7147689965       -3.0225992036       11.5956237233
  H         1.7718472552       -2.9033815115       10.5177913028
  H        -0.2170929619       -3.8564923331       11.7894770353
  H         0.2042539924       -4.8102619509       14.1859583411
  H         2.3736960366       -4.0163090559       15.3733035161
  C         4.0775210071       -2.5048468064       10.0872713776
  C         5.0187869624       -3.5038616425        9.7746488521
  C         4.9929683922       -3.9455475916        8.4571573150
  C         4.1588410736       -3.4408136127        7.5004540371
  C         3.3293206837       -2.3207309987        7.8355183897
  C         3.2777605202       -1.8753977572        9.1218385978
  H         2.8062429228       -1.0145808417        9.4686266387
  H         2.7577356919       -2.0026783119        7.0072125541
  H         4.0330153608       -4.0118613427        6.5626243287
  H         5.6387122682       -4.8003403455        8.1343951509
  H         5.5793591836       -3.9453363657       10.5837387049
  C        12.2749726522       -1.2762734617       13.5885256258
  C        13.3448773573       -0.6373278792       14.3050026610
  C        14.5288327732       -0.2380877952       13.6743494595
  C        15.6491819823        0.3434741442       14.3842122403
  C        16.7072819236        0.9082269389       13.6885191451
  C        13.1627189044       -0.3415931450       15.7738335952
  C        12.4119379633        0.7242521695       16.1800076975
  C        12.3350277309        1.2732567663       17.4520905540
  C        13.1829098663        0.6343528686       18.4063864909
  C        13.9468745702       -0.4581076675       18.0245530885
  C        13.9844183155       -0.9328366680       16.7340010473
  H        15.6498583916        0.4071825518       15.4475652836
  H        17.4881289004        1.3920754306       14.1980731145
  H        11.8419845335        1.2447907025       15.3810499341
  H        11.7582155475        2.1805981834       17.6541469811
  H        13.3711547337        1.1194028441       19.4134838845
  H        14.6479485383       -0.8716815153       18.7484576514
  H        14.6397148488       -1.7583753088       16.5822454560
  C        12.2485157062       -1.2723962335       12.0980568499
  C        11.2499525966       -1.9556491042       11.4269811739
  C        10.1842990394       -2.5620648929       12.1474341106
  C        10.2484915684       -2.7006678316       13.6115162609
  C        11.2708321920       -1.9627523751       14.3156652182
  C        14.4996414330       -0.1935603717       12.2553278827
  C        13.4101434736       -0.6499193222       11.5039101332
  C        13.3228543370       -0.1327137739       10.1349785076
  C        12.3661822157        0.8216919710        9.8208955431
  C        12.2468026529        1.2943973715        8.4924297608
  C        13.1416605329        0.7725487466        7.4861496567
  C        14.0325160527       -0.2194490452        7.7819508982
  C        14.1195195580       -0.6471627188        9.1255240426
  H        14.8050474154       -1.4444754077        9.4079526274
  H        14.5599458399       -0.7371864674        7.0509050266
  H        12.9880097204        1.0422872818        6.4387703756
  H        11.5149482804        2.0676043633        8.2016506717
  H        11.7715782902        1.3489331235       10.5743192754
  C        15.5276535328        0.6169897481       11.5930588400
  C        16.5955729692        1.0558021071       12.2845043424
  H        17.2683072194        1.7734101651       11.7416398527
  H        15.3796897840        0.8520819402       10.5638141279
  C        11.4069075108       -2.3870059878       15.7408480494
  C        12.4354511514       -3.3316354228       16.0365851903
  C        12.6075080499       -4.0240145863       17.2844734159
  C        11.6983067006       -3.6249158160       18.2573880022
  C        10.7293061851       -2.6494721371       18.0072646955
  C        10.5372843907       -2.0143145500       16.7910027651
  H         9.6741063558       -1.2896942697       16.7079058738
  H        10.0432746330       -2.3882403501       18.8162237647
  H        11.6883026290       -4.0007703780       19.2165608762
  H        13.3436171809       -4.8248146146       17.5234496715
  H        13.0893084541       -3.6513515538       15.2178909343
  C         9.1759038027       -3.3420427546       14.2790119884
  C         8.1533745067       -3.8827965604       13.5780233757
  C         8.1377322957       -3.8779093273       12.1625490724
  C         9.1576743306       -3.2459067963       11.4979772034
  H         9.3028939067       -3.2709674685       10.4162954374
  H         7.3848559103       -4.4540846450       11.5606429944
  H         7.2434729917       -4.2576373743       14.0382697467
  H         9.2457969432       -3.4278948889       15.3789982147
  C        11.4502481587       -2.3884822388       10.0045489004
  C        12.5275766253       -3.2861967243        9.6819318446
  C        12.7432684169       -3.6530918961        8.3422550187
  C        11.7187288102       -3.4025704500        7.3136317432
  C        10.6951128315       -2.5302430326        7.6975726547
  C        10.6207197141       -1.8998289673        9.0034154174
  H         9.8264438096       -1.2205936640        9.2636244813
  H         9.7295264828       -2.3770513259        7.1064374539
  H        11.7134146211       -3.7333890363        6.3054695741
  H        13.5998245069       -4.3016543991        8.0527326378
  H        13.0994680891       -3.7304144091       10.4969038361
