140

  C         5.5775818332       -0.2885093513       16.3688797632
  C         6.6803428328        0.3534470447       17.0247499609
  C         7.8178343951        0.7983916913       16.2753161151
  C         8.8793081618        1.5944134139       16.8765192368
  C         9.7446407749        2.2496503504       16.0947181025
  C         6.6883169220        0.7972849432       18.4583664727
  C         5.9849941843        1.9612455307       18.8146875180
  C         6.1064732463        2.5969264534       20.0658284296
  C         7.0180996443        1.9819326100       20.9358686461
  C         7.7047772975        0.7826231015       20.5735568872
  C         7.6043680227        0.2083275397       19.3302958610
  H         8.9184781276        1.6667809431       17.9259475713
  H        10.5931198631        2.8555990560       16.5144970298
  H         5.2400214210        2.3610654000       18.0539321447
  H         5.3095835774        3.2727533409       20.3742228559
  H         7.3524899099        2.4722491040       21.8409963733
  H         8.3116796969        0.3466057855       21.3915107956
  H         8.1305048929       -0.6919979102       19.0216400621
  C         5.6455722102       -0.5073294839       14.8557175949
  C         4.5721808611       -1.2396915760       14.2564245296
  C         3.4759886624       -1.6646502543       15.0048551428
  C         3.4797481590       -1.4924916519       16.3976848000
  C         4.4861753646       -0.8026308264       17.0999245332
  C         7.8215537799        0.6815669402       14.8468956038
  C         6.7182647763        0.1579825588       14.1720107591
  C         6.6246617475        0.4591873725       12.7124853589
  C         5.7492448062        1.4641162753       12.3363032008
  C         5.6461899159        1.9362669542       11.0275974539
  C         6.5544799847        1.4414522980       10.0635080808
  C         7.4758585115        0.4745846927       10.4191826194
  C         7.4746890263       -0.0164049687       11.7320039828
  H         8.0994092786       -0.8965751644       12.0150710989
  H         8.0981147422       -0.0338605347        9.6763485188
  H         6.4274292355        1.8442808037        9.0403408857
  H         4.9794385710        2.7560636291       10.8580264264
  H         5.1138944145        1.9298350056       13.0768616546
  C         8.8070666857        1.4270449770       14.1566530957
  C         9.7394153072        2.1559457498       14.7052856985
  H        10.4845988722        2.5454756122       14.0340974266
  H         8.9062249178        1.3354080469       13.0938290353
  C         4.6513542551       -1.0505099865       18.5752947347
  C         5.5874704508       -2.1279567713       18.8186571187
  C         5.6687259957       -2.6906704263       20.0964437154
  C         4.9478663371       -2.0498269410       21.1304976638
  C         4.0833506939       -1.0230716409       20.8759735384
  C         3.8301639120       -0.5940743360       19.5415805814
  H         2.9675408312       -0.0176502591       19.3372023582
  H         3.4528090414       -0.5707851045       21.6581467156
  H         5.0469800048       -2.3949541946       22.1513707573
  H         6.2714692134       -3.5765474239       20.2967860764
  H         6.1182198325       -2.4448122803       17.9609965170
  C         2.4610027649       -2.1917130995       17.1602704179
  C         1.4764603475       -2.8635078498       16.5687218175
  C         1.4003173765       -2.9190019549       15.1495609329
  C         2.3574432306       -2.3351176046       14.3833082637
  H         2.3842611492       -2.4010993368       13.3172704468
  H         0.6021900941       -3.5259633819       14.6837947686
  H         0.6665362878       -3.4245175129       17.1319643154
  H         2.4316144604       -2.0860037811       18.2444037894
  C         4.6225519851       -1.6750218862       12.8272989958
  C         5.4708395355       -2.6817833431       12.3065241993
  C         5.5804255267       -2.9130997453       10.9321691866
  C         4.6472842897       -2.2754080851       10.0377413393
  C         3.8259911796       -1.3339988830       10.4905760775
  C         3.8367205495       -1.0139648560       11.8470139924
  H         3.1042774413       -0.2697363353       12.1136645260
  H         3.1042741610       -0.8810687415        9.8638938628
  H         4.6527743358       -2.6402300014        8.9701066917
  H         6.2557197462       -3.7473843183       10.6362406064
  H         6.0890972052       -3.1023441196       13.0967528708
  C        12.8191685011       -0.2308772950       16.2237929963
  C        13.9198820958        0.4629118854       16.7910928230
  C        14.9602563663        0.9406447806       16.0539217825
  C        16.0153286242        1.7283107444       16.6434635376
  C        17.0264148994        2.2697696377       15.9462583032
  C        13.8163952132        0.9079737995       18.2729579805
  C        13.0815102460        1.9679714735       18.7136059370
  C        13.1681063093        2.3802348450       20.0349460675
  C        13.9369091193        1.6484902554       20.9704111911
  C        14.6799174264        0.5746410524       20.5090875686
  C        14.6181348716        0.2386490256       19.1819509421
  H        16.1299449591        1.7300800639       17.7178276146
  H        17.8665202854        2.7797502651       16.3312880792
  H        12.5730143206        2.6780252278       18.0429727490
  H        12.6308438689        3.2268977831       20.3203119121
  H        14.1996017974        2.0445676703       21.9791565008
  H        15.2878873576       -0.0420763465       21.1182853745
  H        15.2090451345       -0.6349933115       18.9139752136
  C        12.7551776986       -0.3941165786       14.7456967873
  C        11.7680744173       -1.0947893583       14.0553533764
  C        10.6965580019       -1.6320577210       14.8006101507
  C        10.7414110949       -1.4675619442       16.2375478533
  C        11.8391985188       -0.8665549519       16.9631538576
  C        14.9161530039        0.8691004725       14.5950202191
  C        13.7800768164        0.3235173609       13.9480398021
  C        13.6925173262        0.6214929265       12.4807653361
  C        13.0478876704        1.8756043371       12.1560419531
  C        12.9192526879        2.2826776199       10.8151446012
  C        13.5291757397        1.5158113133        9.8392921592
  C        14.2791329009        0.4056311020       10.1976450903
  C        14.4855555853       -0.0381206011       11.4965589166
  H        15.1055317967       -0.9001822744       11.7215095275
  H        14.8978438106        0.0250945278        9.3937105373
  H        13.5441381957        1.7543099539        8.7724912455
  H        12.5224311385        3.2580343259       10.6330591529
  H        12.7670758078        2.6362922948       12.8716948097
  C        16.0212096770        1.4065088037       13.9056720657
  C        17.0019543333        2.1115848934       14.5168548594
  H        17.7779627167        2.5345474900       13.8547752918
  H        16.1372262494        1.4001909995       12.8330005704
  C        11.9151335156       -1.2211693455       18.4764552713
  C        12.6976373719       -2.3253311535       18.9015361852
  C        12.6313645320       -2.7618953469       20.1874872751
  C        11.7592618530       -2.0946329941       21.0838549725
  C        10.9811058810       -0.9994761471       20.7422800388
  C        11.0630592458       -0.6178999843       19.3843853088
  H        10.6660746676        0.3211051034       19.0323478037
  H        10.2759098309       -0.4669299067       21.3911044686
  H        11.7820123157       -2.6082052816       22.0756449601
  H        13.1858817031       -3.6024657814       20.5596062889
  H        13.4546122748       -2.7465448885       18.2925072755
  C         9.6155315474       -2.0442076094       16.9464511554
  C         8.6544252998       -2.8768222554       16.3341397817
  C         8.7103416011       -3.1610390132       14.9519122584
  C         9.6874985380       -2.4542221494       14.2529095576
  H         9.7066195618       -2.4489310218       13.1620893792
  H         8.0200103434       -3.8663063873       14.5210925981
  H         7.9333275483       -3.3118494534       17.0382550809
  H         9.6111180522       -1.9941192860       18.0642070074
  C        11.8303398822       -1.4316402009       12.6008514655
  C        12.4358341093       -2.6128438432       12.2888336449
  C        12.4385643511       -3.1855821355       10.9958763850
  C        11.7060009641       -2.6326700771        9.9404171801
  C        11.0369881154       -1.4394207096       10.2959879997
  C        11.0960136029       -0.8539259717       11.5602901254
  H        10.5768609505        0.0859601182       11.6855699858
  H        10.3216781214       -1.0045531723        9.6397530108
  H        11.6562553584       -2.9965984470        8.9288461710
  H        12.9548558945       -4.1610503556       10.8896716165
  H        12.7427997641       -3.2555646642       13.1092035692
