140

  C         4.0930451358       -0.4954839828       14.2995009172
  C         5.0308977145        0.2827117971       14.9976304491
  C         6.0929719089        0.8638499402       14.3368376358
  C         7.2198944571        1.5288817947       14.9367564108
  C         8.3179110806        1.9466130647       14.2075083568
  C         4.9817379042        0.5601423639       16.4813348914
  C         4.2198324077        1.6420489394       16.8420284936
  C         4.3888049894        2.1366969900       18.1380086739
  C         5.1943874466        1.4840420034       19.0914253879
  C         5.8485615081        0.3470014033       18.6991457044
  C         5.8346384784       -0.0510470192       17.3691991123
  H         7.2176417217        1.8490661888       15.9790918082
  H         9.1059879856        2.5014244082       14.6763697792
  H         3.6841129913        2.2595682519       16.0873412534
  H         3.9906821667        3.1270385779       18.3537060871
  H         5.3992079172        1.9435452858       20.0919958373
  H         6.4264197154       -0.2448504078       19.4817480075
  H         6.4835577925       -0.8991517467       17.0491639243
  C         4.0576187280       -0.6501177340       12.7992830256
  C         3.1061848801       -1.4220799748       12.1118878212
  C         2.0590633103       -2.0035586830       12.8275444331
  C         2.1494697402       -1.8677729558       14.3275991691
  C         3.2229549223       -1.3233871111       15.0004171344
  C         6.1625771349        0.6622275786       12.8675874012
  C         5.1847287347       -0.0458848018       12.0974911889
  C         5.1112316070        0.3877728063       10.7155881361
  C         4.3105401437        1.5263723471       10.5210890758
  C         4.3327828551        2.1884985580        9.2830598318
  C         5.0955909962        1.7214788480        8.2075948923
  C         5.8028179305        0.4757260207        8.3442925082
  C         5.7475837413       -0.1686555923        9.5771259718
  H         6.3831680541       -1.0010991863        9.8015898137
  H         6.4981818499        0.1436170678        7.6002816398
  H         5.1147669107        2.3560931058        7.3601475148
  H         3.6012338262        2.9931805565        9.1269924410
  H         3.7798229355        1.9200600064       11.3484919649
  C         7.3042937633        1.1945863948       12.1564871993
  C         8.3018491894        1.9035795248       12.8161908807
  H         9.1590559950        2.2543339839       12.3648634939
  H         7.3656464472        1.1066502959       11.0736127357
  C         3.2226547743       -1.5886925799       16.4888971408
  C         3.9289888792       -2.7175702459       16.9888706548
  C         3.6667774021       -3.0361209689       18.3630495588
  C         2.8180714120       -2.2574138568       19.1793911661
  C         2.2572134794       -1.0774916698       18.6812813770
  C         2.4438019022       -0.7951167910       17.3467591100
  H         1.8649514289       -0.0400798897       16.7747837987
  H         1.5779561505       -0.4313571616       19.3400028910
  H         2.6135080228       -2.5181477046       20.2043468119
  H         4.1152089581       -3.9620121912       18.7905547121
  H         4.6260449597       -3.3400184458       16.3918780587
  C         1.0689799674       -2.5702432710       15.0334052939
  C        -0.0705963201       -2.9496839841       14.4733534990
  C        -0.2135761924       -3.0479293011       13.0456607268
  C         0.8290876524       -2.6591134735       12.2532044334
  H         0.7419424788       -2.8142726376       11.1820058285
  H        -1.0904129974       -3.4895975122       12.6087169749
  H        -0.8601038855       -3.4903916562       15.0576414866
  H         1.3384491333       -2.8868491039       16.0635906286
  C         3.1537369589       -1.7093331680       10.6609968536
  C         4.1150601394       -2.6134201122       10.1104337976
  C         4.0641102716       -2.9280086541        8.7326738780
  C         3.0991248850       -2.2857557672        7.8805044636
  C         2.2832399784       -1.2945020774        8.4179802568
  C         2.3335600795       -0.9959636209        9.7369182358
  H         1.6088118121       -0.2586192585       10.0141865602
  H         1.6308982588       -0.7152467427        7.7960029510
  H         3.0476708194       -2.6440404285        6.8755314723
  H         4.7376672431       -3.6679597735        8.3376886543
  H         4.8940727870       -3.0433267922       10.7147833603
  C        11.0591484423       -0.3808842322       14.2583639508
  C        12.0986344254        0.3359093480       14.9630718317
  C        13.2668381868        0.7360377549       14.2774965653
  C        14.4341986547        1.3058395490       14.9381156229
  C        15.4348478751        1.9542245506       14.3155958283
  C        12.0310722335        0.5852482757       16.4506150211
  C        11.2940161951        1.6702436143       16.9464479648
  C        11.3410105201        1.9832420355       18.3145876321
  C        12.1583958594        1.2587728144       19.1702049312
  C        12.8836145552        0.1661362049       18.6467264413
  C        12.8150345962       -0.1492810691       17.3289821632
  H        14.4700910313        1.3244977753       16.0313362059
  H        16.2532622348        2.3771802219       14.8343266837
  H        10.7012117206        2.1319994269       16.1587031321
  H        10.8243592291        2.7869949292       18.7212478779
  H        12.3132649937        1.5278141515       20.1765341737
  H        13.5432398509       -0.4356916096       19.2774515699
  H        13.4111385605       -1.0066751199       16.9501935653
  C        11.0967276899       -0.4365173930       12.7830220760
  C        10.2049245267       -1.3180764849       12.0937390889
  C         9.1091098326       -1.8717568650       12.7828384233
  C         9.1169285749       -1.8830314940       14.2460266890
  C        10.0865378777       -1.1499918866       14.9578694141
  C        13.1768082583        0.9261864573       12.8752213554
  C        12.0757718683        0.4210859547       12.1731910464
  C        12.0741257202        0.7085601846       10.7367467286
  C        11.2379490730        1.6645858906       10.2203793019
  C        11.4538801902        2.1203570984        8.9093899849
  C        12.4656206867        1.4897046079        8.1086927631
  C        13.1493268697        0.3529698657        8.6097494122
  C        13.0068091382       -0.0057132961        9.9243271596
  H        13.6347727331       -0.7148352486       10.3700007346
  H        13.7262885379       -0.1723612518        7.8431843635
  H        12.5663918716        1.7176348323        7.0639824176
  H        10.6566426366        2.8083810438        8.5029821509
  H        10.5286903670        2.2634768992       10.7068786749
  C        14.3226469773        1.5055218371       12.2405502610
  C        15.4099594378        2.0639644388       12.8938361167
  H        16.2125543877        2.4977746182       12.3433280096
  H        14.4184848996        1.5049095792       11.1442725133
  C        10.1645055705       -1.5035414294       16.4230356355
  C        11.0390779412       -2.5192879786       16.8330227417
  C        11.0215336707       -2.9821224426       18.1624886661
  C        10.1448676973       -2.4343618787       19.0557276606
  C         9.3348633347       -1.3144259236       18.6927949259
  C         9.3830789667       -0.8659592321       17.3675145776
  H         8.8165253052        0.0173490022       17.0947066806
  H         8.6374631100       -0.9589251171       19.4513599518
  H        10.1473554292       -2.7772233488       20.0983404830
  H        11.6348421995       -3.8881442772       18.3909024102
  H        11.5757833474       -3.0333415322       16.0931423191
  C         7.9665843066       -2.5172968826       14.8573842831
  C         7.0052269451       -3.2607986091       14.2202466064
  C         7.0347200305       -3.2166047227       12.7873625077
  C         8.0336670739       -2.5474010310       12.1060455540
  H         7.9715610491       -2.6379949658       11.0044781527
  H         6.1693683384       -3.6369705809       12.2690213332
  H         6.2553332607       -3.8047471289       14.7580949105
  H         7.9230416555       -2.6106889178       15.9109573531
  C        10.3529598102       -1.7659590360       10.6348271508
  C        11.3640993625       -2.6944365848       10.3121590729
  C        11.4967321395       -3.0306404544        8.9750790763
  C        10.6787100341       -2.5261690468        7.9768118484
  C         9.7454047834       -1.5253956118        8.2878989264
  C         9.5740464084       -1.2390567565        9.6396253390
  H         8.7897578261       -0.5473877836        9.9156095864
  H         9.0542395408       -1.2019551148        7.4921011143
  H        10.8673949008       -2.9120789342        7.0015112005
  H        12.1699458898       -3.7965332421        8.6594569685
  H        11.8926204808       -3.0928239915       11.1928216984
