140

  C         4.6587976628       -1.2150359207       13.8268127213
  C         5.6446436730       -0.4529529527       14.4810030162
  C         6.6774470147        0.2222619374       13.6922353667
  C         7.8094976179        0.8981284657       14.3411960710
  C         8.9217596001        1.3841713650       13.6707061727
  C         5.5275080717       -0.1640483786       15.9244813131
  C         4.9088527476        0.9851585672       16.5088403123
  C         5.0602690793        1.2728089648       17.9392172641
  C         5.7549441978        0.3769287664       18.7644162000
  C         6.4299614804       -0.6938221633       18.2331967402
  C         6.3236187050       -0.9554766558       16.8044418875
  H         7.8470763510        0.7858752499       15.4305757448
  H         9.7096871683        1.9602035693       14.1905465006
  H         4.4244354958        1.6654296391       15.7881430228
  H         4.5491422510        2.2167609504       18.3525518120
  H         5.7780003269        0.5438964774       19.8696248634
  H         7.1214868462       -1.3472788498       18.7959574669
  H         7.0004219205       -1.7167897333       16.3435969695
  C         4.5943261333       -1.2503964810       12.3387620136
  C         3.6434012417       -2.1118353086       11.6535440602
  C         2.5338503424       -2.5771431535       12.3790883002
  C         2.5518811542       -2.4676743020       13.8240426716
  C         3.6824371796       -1.9739148377       14.5684717417
  C         6.6375351850        0.1569302027       12.2810314680
  C         5.5905665483       -0.5067818394       11.6312107942
  C         5.5850567791       -0.3055467605       10.1655974592
  C         4.7450156896        0.7693443625        9.7384093024
  C         4.7424966478        1.2599933893        8.3941872746
  C         5.5649498755        0.6855244223        7.4275383835
  C         6.4872743562       -0.3707865442        7.8638593727
  C         6.4605665344       -0.8677356549        9.1952750522
  H         7.0846613387       -1.7228915341        9.4842798406
  H         7.2428313167       -0.8469601542        7.2156406633
  H         5.5156044222        1.1040970368        6.4185681091
  H         4.0653626746        2.0761870130        8.1187847394
  H         4.1592267687        1.4061738461       10.3947052983
  C         7.7688041117        0.7384496052       11.5700080050
  C         8.7848722399        1.4527288885       12.2212314523
  H         9.5624551810        1.9850908443       11.6247741023
  H         7.8061920783        0.9307343891       10.4860477211
  C         3.6806930034       -2.2082150017       16.0387538215
  C         4.0453066962       -3.4682153626       16.5424127176
  C         3.8704805425       -3.8450857159       17.9102636995
  C         3.1857524932       -2.9114810675       18.7387201217
  C         2.6186303667       -1.7177668807       18.2021469021
  C         2.9747256654       -1.4148279210       16.8998523940
  H         2.6124023223       -0.4022350884       16.5184856391
  H         1.9956937559       -1.0150530651       18.7393617578
  H         2.9460915271       -3.1192233177       19.8091091717
  H         4.3912498524       -4.6896802163       18.2539130755
  H         4.5904675880       -4.0877447006       15.9021149254
  C         1.4161504939       -3.0033458180       14.6075413388
  C         0.3557232260       -3.6505282980       14.0240904576
  C         0.2589642047       -3.6888158830       12.5314101433
  C         1.3449277738       -3.2188622256       11.8372188887
  H         1.4391380840       -3.3354606371       10.7374181702
  H        -0.5578353340       -4.1752799624       11.9563350905
  H        -0.4188284147       -4.1387520841       14.5542578641
  H         1.4306537249       -2.8618419517       15.6823505751
  C         3.7393979853       -2.3824715992       10.1256284052
  C         4.6655141313       -3.3447553307        9.6079222250
  C         4.5880255854       -3.7363825962        8.2381252252
  C         3.7069370697       -3.1370216844        7.3672147815
  C         2.7494051296       -2.2153364765        7.8891904024
  C         2.8140913389       -1.8004402265        9.2201004970
  H         1.9909459738       -1.1376356613        9.6105142503
  H         1.9543157046       -1.8047082601        7.1957053582
  H         3.6930434218       -3.5437212047        6.3674339000
  H         5.2394430617       -4.5659892364        7.8864160810
  H         5.4004247951       -3.7407981434       10.3304883470
  C        11.7954209896       -1.1792000128       13.8161879271
  C        12.9152744437       -0.6113952773       14.4511483406
  C        13.9899386118       -0.0722539636       13.7435117055
  C        15.1243930920        0.4969415874       14.4107634434
  C        15.9868131655        1.2766633823       13.6709656430
  C        12.9445351131       -0.3796905961       15.9570780611
  C        12.1826263201        0.6672104315       16.3265407650
  C        12.0181693413        0.9620122024       17.7431263450
  C        12.9193830371        0.4463346667       18.6869214054
  C        13.8691883088       -0.4932997166       18.2613861461
  C        13.7951364005       -0.9682691027       16.9534116293
  H        15.2127604325        0.6563684192       15.5214691318
  H        16.7688480296        1.8321596782       14.0951535664
  H        11.5469757340        1.1686148783       15.5675767373
  H        11.2403097826        1.7156620591       18.0719232501
  H        12.8185991675        0.8196606708       19.6782917472
  H        14.5947151133       -1.0231370181       18.9490087790
  H        14.5328970469       -1.7160683469       16.6999093300
  C        11.8009370216       -1.3106895170       12.3434381419
  C        10.7335684083       -1.9529777016       11.6353865905
  C         9.6294908326       -2.3063468506       12.4046222311
  C         9.7236530765       -2.3791743193       13.8484324801
  C        10.7754997065       -1.7852592080       14.5722099788
  C        13.9283177037       -0.0306884031       12.2854758289
  C        12.8033348914       -0.6255743930       11.5967040857
  C        12.6330100492       -0.2220862779       10.1493102359
  C        11.6583284250        0.7759735675        9.8849716226
  C        11.6654887955        1.4724097776        8.6603527932
  C        12.5263659868        1.1093795701        7.6337810098
  C        13.3544868217        0.0035806240        7.8102340150
  C        13.4160945212       -0.6662507063        9.0553142559
  H        14.1013115397       -1.4810490492        9.1026053637
  H        13.9501364559       -0.4413937894        6.9254516711
  H        12.5988384294        1.6990245433        6.7101560081
  H        10.9412927881        2.2883185847        8.5309118651
  H        11.0888552196        1.1250624852       10.7134796744
  C        14.8355895408        0.8490303218       11.5743079250
  C        15.8712241165        1.4126843973       12.2223923395
  H        16.5564206547        2.0843596061       11.7014549874
  H        14.6021559210        1.1105792674       10.5367898610
  C        10.8079036387       -2.1412834148       16.0361026949
  C        11.4673825721       -3.3113534583       16.3692471820
  C        11.3370390388       -3.8926353808       17.6737782189
  C        10.5298330710       -3.3089973259       18.5966493620
  C         9.8194801884       -2.1112818557       18.2981090754
  C         9.9713941238       -1.5388412918       17.0394380964
  H         9.5236950913       -0.6131583777       16.7565269117
  H         9.1744790565       -1.6208312018       18.9658196198
  H        10.5580163140       -3.6945662016       19.5811644719
  H        12.0323678768       -4.7142276536       17.9532402576
  H        12.0433794713       -3.8335466536       15.6550794489
  C         8.6890372399       -3.0703340279       14.5004028718
  C         7.4658037398       -3.3906345920       13.8800719803
  C         7.3341575592       -3.3284725378       12.4639549054
  C         8.4381414484       -2.8526232050       11.7881936942
  H         8.3668348285       -2.9478600598       10.6687219035
  H         6.4437780713       -3.6722387955       11.9049921937
  H         6.6198440464       -3.7940389400       14.4534335502
  H         8.7873486227       -3.2669146209       15.5646790954
  C        10.7383436584       -2.3930783752       10.1941659166
  C        11.5781146850       -3.4133655020        9.7123854175
  C        11.5725605349       -3.8178148647        8.4149061832
  C        10.6704828321       -3.2038605729        7.4466334641
  C         9.8234628104       -2.1814923721        7.9467873543
  C         9.9091037403       -1.7772193217        9.2875917151
  H         9.2949641163       -0.9071465904        9.5440805778
  H         9.0216349635       -1.7523720389        7.3585839765
  H        10.7232185744       -3.6730884155        6.4834693018
  H        12.2612954299       -4.6032752700        8.1102870572
  H        12.3238624377       -3.8984709722       10.3514838030
