140

  C         3.2783136524        0.2054018155       14.4725950568
  C         4.4178363188        0.6829470956       15.2145911842
  C         5.3554963977        1.3939430409       14.4328005239
  C         6.6406633160        1.8689048799       14.9889861921
  C         7.5427313818        2.5253762602       14.2491538246
  C         4.3995620274        1.1016508372       16.6390199876
  C         3.7788817790        2.2888961854       17.0252531653
  C         3.7682148360        2.6237031299       18.3922997681
  C         4.2604270495        1.7536599449       19.3314458228
  C         5.1224733059        0.7704814293       18.8729760580
  C         5.2179027143        0.4456683331       17.5442013158
  H         6.7361696880        1.7027087410       16.0369389460
  H         8.4878833935        2.8640894045       14.7156119919
  H         3.1768199678        2.8768227667       16.3568969001
  H         3.2455099490        3.5516110665       18.6754228740
  H         4.1198325736        1.9842051220       20.3830749920
  H         5.6699811633        0.1463603299       19.5964938009
  H         5.8426873064       -0.3518596780       17.1156959754
  C         3.1468800292        0.2773498656       12.9973358301
  C         2.1580756992       -0.4882993586       12.3701461208
  C         1.1588696727       -1.1276608375       13.1008985502
  C         1.1819826548       -1.0788658173       14.5837770825
  C         2.3287984018       -0.5405183292       15.2259525700
  C         5.2855904839        1.4671639667       13.0304156540
  C         4.1543816735        0.9404931970       12.2658526404
  C         4.1076434893        1.1877005325       10.7718330146
  C         3.4467834769        2.3471960896       10.2156420725
  C         3.7661874949        2.7377026352        8.9384128076
  C         4.6548230925        2.0005370255        8.1269123440
  C         5.2313776106        0.8123225195        8.6009451005
  C         4.9242306632        0.4400381453        9.9035143349
  H         5.3176700384       -0.5214239923       10.3000180139
  H         5.8851404737        0.1835181851        8.0707038539
  H         4.9828291335        2.4580122915        7.1755885394
  H         3.2722745823        3.5948214520        8.5072371555
  H         2.6821639505        2.9119063633       10.7423192619
  C         6.2468642695        2.2295772289       12.2461683239
  C         7.3533990455        2.7390839643       12.8857179033
  H         8.1598859526        3.2271002910       12.3283092303
  H         6.1150786642        2.4222416961       11.1899865898
  C         2.5552256089       -1.0518450136       16.6458831943
  C         3.4937111138       -2.1218285852       16.9190316846
  C         3.5070216666       -2.6117478476       18.2417797157
  C         2.6998677326       -2.0620617076       19.2362577529
  C         1.7437747086       -1.0913914665       18.9448240421
  C         1.6625666337       -0.5909356564       17.6061946784
  H         0.8381307065        0.1444868739       17.5737981166
  H         1.0842585139       -0.7278347138       19.7672043196
  H         2.7072428717       -2.5329211148       20.1920226849
  H         4.1753112577       -3.4413454660       18.3850051341
  H         4.0584588146       -2.5832917863       16.0868203287
  C         0.1013002891       -1.7293051667       15.2486750828
  C        -0.9885560446       -2.2709662926       14.5361443630
  C        -0.9575840374       -2.3163645317       13.1385813408
  C         0.0379025252       -1.7177655549       12.3849920713
  H         0.1581139226       -1.8273892471       11.3123885627
  H        -1.7686337201       -2.8596659319       12.6377857263
  H        -1.7268790851       -2.8490843761       15.1283926067
  H         0.0134641828       -1.6787987119       16.3767541168
  C         2.1710640888       -0.8845393880       10.9407163015
  C         2.8520623069       -2.0967901938       10.6886959303
  C         2.7641538017       -2.5551414726        9.4046194514
  C         2.0135125605       -1.8535381469        8.4130623866
  C         1.4985850000       -0.5679201056        8.6316201301
  C         1.5390635806       -0.1567845871        9.9541307969
  H         0.9766791978        0.6892357477       10.2663963679
  H         1.1027681138        0.0680082454        7.8751679560
  H         1.9306148653       -2.3585180299        7.4963212939
  H         3.1871267272       -3.5279016909        9.0980099857
  H         3.3861430407       -2.8108597824       11.3926352676
  C        10.5929215885        0.1140718132       14.7637364771
  C        11.6359968455        0.7101247795       15.5234171358
  C        12.7006928882        1.3136650359       14.9396789888
  C        13.7620020755        1.8145378419       15.8117121439
  C        14.8700727863        2.3194906453       15.2099923652
  C        11.5258497054        0.9438892532       17.0175831260
  C        10.9072597272        2.1496677021       17.3878746484
  C        10.9530031579        2.5822923421       18.7220439136
  C        11.6648561062        1.8751290342       19.7096845082
  C        12.2422494864        0.6505612123       19.3511483840
  C        12.2219715779        0.2074456651       18.0398320386
  H        13.6581942491        1.7659860449       16.8436198410
  H        15.6508614469        2.7573052085       15.8047018220
  H        10.3305784227        2.7129180670       16.7102393254
  H        10.4594864412        3.5074830824       19.0197499175
  H        11.7004406138        2.1517943492       20.7285552003
  H        12.7114761721        0.0576634403       20.1298573771
  H        12.7234387196       -0.7002478144       17.6813990452
  C        10.6259401178        0.3366719869       13.2813820747
  C         9.5360805094       -0.3172495277       12.5359455842
  C         8.4078356923       -0.8754251228       13.1277192044
  C         8.4403415203       -0.9772989601       14.6142638588
  C         9.5102255934       -0.5369466889       15.3807103947
  C        12.7483710634        1.5356041256       13.5189599703
  C        11.6660326734        1.0812058017       12.6686241887
  C        11.5063003028        1.5197623290       11.2104376822
  C        10.5498025036        2.5660411799       10.8502717931
  C        10.4241452125        2.9489655459        9.5021794043
  C        11.1592386844        2.2580314977        8.5268931797
  C        12.0303927924        1.2384366644        8.8322279454
  C        12.2168084384        0.8504149897       10.2046087519
  H        12.9650927248        0.0324994941       10.4238239537
  H        12.5944041036        0.7930568220        8.0515004686
  H        11.0206988125        2.6540700484        7.5124662648
  H         9.7281229173        3.7153556758        9.1586555025
  H        10.0750294611        3.0576740562       11.6645730088
  C        13.8770682815        2.1305706009       12.9371441266
  C        14.9344641370        2.4373345721       13.7493429225
  H        15.7378900364        3.0823914012       13.3489095357
  H        13.7932481172        2.2887481607       11.8644043773
  C         9.5555024782       -0.9879830059       16.8022903166
  C        10.1076963183       -2.2091251064       17.1466257900
  C         9.9752870255       -2.7707301710       18.4496634052
  C         9.4159920425       -2.0262518511       19.4552730238
  C         8.8387171988       -0.7711965433       19.1777499503
  C         8.8156706433       -0.3118018444       17.8586396260
  H         8.3133266331        0.6323628889       17.6149576056
  H         8.2630148572       -0.2934837843       19.9960733143
  H         9.4407325690       -2.4644658389       20.4487710026
  H        10.3573851854       -3.7680682142       18.7600943342
  H        10.6493018569       -2.7116872230       16.3334823447
  C         7.3104519639       -1.7038038183       15.2129436562
  C         6.3224842010       -2.2881204176       14.4995779601
  C         6.2467074932       -2.1623008307       13.0897140022
  C         7.2844604189       -1.4828743878       12.3958827650
  H         7.2479821701       -1.2668625417       11.3449981873
  H         5.4335182639       -2.5224053215       12.5663982014
  H         5.4683304634       -2.7576856835       14.9772345096
  H         7.2430147170       -1.7811950612       16.3151220210
  C         9.5980928806       -0.6635840013       11.0630002961
  C        10.4830642559       -1.7290742496       10.6385964248
  C        10.3579062682       -2.2625327670        9.4030256510
  C         9.6466867388       -1.6290337856        8.3893419280
  C         8.9847491994       -0.4567003414        8.7254284083
  C         8.8816988059        0.0273411798       10.0450939766
  H         8.2848949286        0.9264071613       10.2289019890
  H         8.4633122045        0.1719630582        8.0297703945
  H         9.6475720260       -2.0273221150        7.3701574671
  H        10.9326958657       -3.1843880082        9.2601346533
  H        11.1989273740       -2.1550637836       11.3199952660
