140

  C         3.4367209928        0.0935943828       14.7217225062
  C         4.4316348576        0.8121225117       15.4884304116
  C         5.4512126783        1.3946517343       14.6597539358
  C         6.5086322100        2.0460595646       15.3071838693
  C         7.5509031728        2.6395138745       14.6913929724
  C         4.2795410910        1.1192776080       16.9258785564
  C         3.5276370308        2.2453103247       17.3285929071
  C         3.5719144614        2.7379603850       18.6103066457
  C         4.3237569898        2.1471758525       19.6303110391
  C         5.0433704582        1.0091253104       19.2965264618
  C         5.0222626404        0.5506228277       17.9743578515
  H         6.4774292509        2.0238232566       16.3995214278
  H         8.3059356366        3.0908427164       15.2784272083
  H         2.9077382250        2.8168577769       16.6770763318
  H         2.9661641155        3.6376124556       18.8481954724
  H         4.2581229876        2.5017385000       20.6341921486
  H         5.5996598345        0.3771238966       20.0121844034
  H         5.5656295770       -0.3681089038       17.8183257898
  C         3.4504281176        0.1661392898       13.2502939175
  C         2.2846089004       -0.5028107523       12.5479041208
  C         1.2598123961       -1.1101063053       13.2566366143
  C         1.3647753812       -1.2615418539       14.7151249515
  C         2.5151248355       -0.8005758283       15.4047407064
  C         5.4686644653        1.4574745061       13.2315053345
  C         4.3919617910        0.8410469937       12.5188066486
  C         4.1978907389        1.2474686395       11.1292067082
  C         3.2842663934        2.2404218743       10.7648788737
  C         3.3022641950        2.8265208540        9.4309128796
  C         4.1925105309        2.3029195755        8.4964073930
  C         5.0899104558        1.2624633317        8.8529356704
  C         5.0997356915        0.8227149248       10.1402664603
  H         5.8374389791        0.0798753434       10.4847429531
  H         5.6881403857        0.7406470123        8.1380202529
  H         4.2196449027        2.7062838249        7.4660130356
  H         2.5441983214        3.5293731165        9.0778529662
  H         2.5964999397        2.5903830071       11.5364655819
  C         6.5636137225        2.1208784363       12.6054408178
  C         7.6106772546        2.7069499813       13.3422972681
  H         8.4424009547        3.1345300226       12.8150734654
  H         6.5971222359        2.1194678751       11.5222457092
  C         2.5492076885       -1.1142528124       16.8347525277
  C         3.4290655269       -2.1070470742       17.3068310661
  C         3.1929686908       -2.6667017264       18.5472729647
  C         2.2920599576       -2.1408175837       19.4090300555
  C         1.5010449937       -1.0739313557       18.9622711535
  C         1.6275234461       -0.5584053613       17.6963024172
  H         1.0387456187        0.2555528427       17.2410629171
  H         0.8497013771       -0.5793316782       19.6202571757
  H         2.1008710051       -2.4001472874       20.4337081608
  H         3.8001304826       -3.4919985010       18.9579371647
  H         4.1523835964       -2.4432509846       16.6139986431
  C         0.3771010630       -2.0379919241       15.3574207082
  C        -0.6423321524       -2.6726786258       14.6405312305
  C        -0.8231584657       -2.3856353973       13.2719663153
  C         0.1758644487       -1.7183013449       12.5915436348
  H         0.1933494461       -1.6292938581       11.5227662169
  H        -1.7007080767       -2.8287572168       12.8399570307
  H        -1.3516314306       -3.2524032883       15.2543427760
  H         0.4800398597       -2.2486199301       16.4378135407
  C         2.3821933797       -0.8771174884       11.0209717978
  C         3.3375944595       -1.8058896343       10.6802223731
  C         3.4351279298       -2.3653613452        9.4171637955
  C         2.4722501784       -1.9591600106        8.4833679373
  C         1.5127724711       -0.9387430935        8.7362651702
  C         1.4564410164       -0.4089163100       10.0489637443
  H         0.6995559341        0.4072022473       10.1960362386
  H         0.8634174351       -0.6321060778        7.9933691151
  H         2.6020651337       -2.2909659043        7.4155000687
  H         4.2596275595       -3.0064113507        9.2339775371
  H         4.0788329915       -1.9641208423       11.4472682348
  C        10.5814761576        0.1747843972       14.8148392387
  C        11.5489205390        0.8882175777       15.5456211563
  C        12.6811758586        1.4399585165       14.8827900840
  C        13.6954822767        2.2372275415       15.5231672572
  C        14.7556225720        2.7474692321       14.8332295741
  C        11.4898675041        1.1722998339       17.0554902756
  C        10.5903917953        2.1637109014       17.4484962683
  C        10.5613705277        2.6855972046       18.7659245912
  C        11.4981646852        2.1336447040       19.7255164500
  C        12.3990009117        1.1006417791       19.3015433045
  C        12.4285684267        0.6289399614       17.9984478981
  H        13.6776336091        2.1679433434       16.5812739197
  H        15.5458327355        3.2183393171       15.3459817654
  H         9.8435107910        2.5371598196       16.6825114988
  H        10.0213676083        3.5809443857       19.0020470800
  H        11.5082115316        2.4122045997       20.7920963076
  H        13.1289810301        0.6567292810       20.0263350520
  H        13.2697514777        0.0197131559       17.6867647904
  C        10.6242958261        0.1844274632       13.3567725909
  C         9.5601074498       -0.4107181878       12.5965732886
  C         8.4399847631       -0.9965990061       13.2413786041
  C         8.3758662900       -0.9964796788       14.6990864661
  C         9.4604845975       -0.4725672925       15.4340856685
  C        12.7700798393        1.3860479602       13.4380359676
  C        11.7465578593        0.8170459858       12.7029858063
  C        11.6745717456        1.1729632360       11.2637349169
  C        11.0038706195        2.3491468448       10.9823623351
  C        11.1387159323        2.9972919395        9.7576624106
  C        11.7390325451        2.3165696351        8.6595779563
  C        12.2829022609        1.0194862750        8.8597599091
  C        12.2821224901        0.4616274492       10.1857510488
  H        12.7528207878       -0.5339539205       10.3684357662
  H        12.7130347528        0.4820739795        8.0100930506
  H        11.6844679326        2.7471484932        7.6893313548
  H        10.7006395438        4.0204984653        9.6235413207
  H        10.4743293153        2.8329869074       11.7780370501
  C        13.9004368577        1.9741388605       12.7391702976
  C        14.8494040093        2.6702152043       13.4043198792
  H        15.7473800518        3.0466508023       12.9197296529
  H        13.9131085776        1.9926219413       11.6397827854
  C         9.5211596539       -0.8989296895       16.8723262300
  C        10.3569854032       -2.0272477886       17.1722480791
  C        10.3892415776       -2.5598402295       18.4827588161
  C         9.5897955574       -1.9954567818       19.5355683374
  C         8.6644526960       -1.0324362199       19.1526543610
  C         8.6788536629       -0.4334971378       17.9027736299
  H         7.9679563244        0.3827016515       17.7682352299
  H         8.0710822020       -0.4849689775       19.8349705597
  H         9.7429936837       -2.3579499556       20.5517713207
  H        11.2010487345       -3.2717989091       18.7413809775
  H        10.9666322836       -2.4739811223       16.3987009489
  C         7.2252155368       -1.5662219689       15.3319216771
  C         6.2775567642       -2.2424109545       14.6279993041
  C         6.3575098450       -2.3706079228       13.2476007681
  C         7.4500810551       -1.7202509818       12.6005736160
  H         7.6096656914       -1.9020862791       11.5637782436
  H         5.7380849775       -3.0069753635       12.7366276892
  H         5.4154845262       -2.7581613953       15.1669414315
  H         7.1155240089       -1.4483238930       16.4152460570
  C         9.6056248711       -0.6393213864       11.0945410677
  C        10.3463475167       -1.6990122213       10.5677752357
  C        10.2051353223       -2.1569433811        9.2683231240
  C         9.5013240178       -1.3490585509        8.3543123185
  C         8.6920903644       -0.2683061132        8.7888563581
  C         8.7308481880       -0.0097572602       10.2151953578
  H         8.0339054171        0.7212348378       10.6707006143
  H         8.0639506450        0.3124040183        8.0848822326
  H         9.4574752124       -1.6914025025        7.2869327322
  H        10.6839483689       -3.0672197921        8.8532069205
  H        10.9802802948       -2.2442279291       11.2662265456
