140

  C         4.5744215044       -0.6940845471       13.8669508235
  C         5.6203763529        0.0389932412       14.5126688345
  C         6.6618387855        0.5986299752       13.7367043877
  C         7.7899438863        1.2277669286       14.2629866672
  C         8.8536123172        1.6434685239       13.5062687426
  C         5.5542680479        0.4535170354       15.9518578764
  C         4.7573676704        1.5591491304       16.2193377248
  C         4.7496922898        2.0396566475       17.5740806443
  C         5.4257940009        1.3544628678       18.5856773415
  C         6.1806428509        0.1789338323       18.3372656010
  C         6.3277412528       -0.1248845656       16.9645696255
  H         7.8385756300        1.3872318543       15.3239746367
  H         9.7502836204        2.0994683298       13.9091918299
  H         4.1974056368        2.0361287791       15.3844291673
  H         4.2845728172        2.9544179498       17.8566328393
  H         5.4704683660        1.8183604123       19.5819539278
  H         6.8023346378       -0.2805296800       19.0170196000
  H         7.0565001580       -0.8389569021       16.7353123894
  C         4.3337525256       -0.5613373262       12.4435094780
  C         3.2719406406       -1.2233755211       11.7560207672
  C         2.3776181719       -1.9434868739       12.5711502944
  C         2.5122228931       -2.0121790677       14.0730753213
  C         3.6504579032       -1.4515654245       14.6538045154
  C         6.5728687558        0.4901917629       12.2664253508
  C         5.3519151307        0.0424986916       11.6157743119
  C         5.1587294823        0.2886905534       10.1472763166
  C         4.4656240691        1.4623703762        9.7430150999
  C         4.4449213794        1.7588053749        8.4036622236
  C         5.1818631596        1.0971925778        7.4545491767
  C         5.8635190878       -0.0496310903        7.8785005875
  C         5.8422894915       -0.4744559117        9.1819326896
  H         6.4093080554       -1.3258796080        9.5091040219
  H         6.4842950559       -0.6019004422        7.1791921062
  H         5.2482117553        1.5981389424        6.5512287123
  H         3.8812621176        2.6408388599        8.1680851311
  H         3.8095026272        2.1782514720       10.3228470428
  C         7.7054251552        0.9378378601       11.4533468336
  C         8.8544257680        1.4355957363       12.0807100127
  H         9.7270599169        1.7652648952       11.4966982878
  H         7.7063345570        0.8710080112       10.3606304595
  C         3.8003556459       -1.8472047454       16.1677411081
  C         4.4302692166       -3.0946906154       16.2866811881
  C         4.3224090782       -3.7064250618       17.4988196393
  C         3.7224498461       -3.1291423047       18.5874452183
  C         3.0072072701       -1.9583378730       18.5061528859
  C         3.0480716653       -1.3057537314       17.2424770506
  H         2.4431755861       -0.4581774252       17.0024849445
  H         2.2867185810       -1.6849740759       19.2648845420
  H         3.6488556265       -3.7346820944       19.5346035605
  H         4.8203577641       -4.6643387250       17.6112444175
  H         4.9424656498       -3.5723339358       15.4103256020
  C         1.5919674727       -2.8457846900       14.7995890114
  C         0.7516215865       -3.6784771863       14.1328839575
  C         0.6958909505       -3.7277621994       12.6940733797
  C         1.4824347063       -2.9283211051       11.9742465236
  H         1.3378329599       -2.9048070420       10.9244140692
  H        -0.0712009970       -4.3781834717       12.2233382440
  H         0.0206529112       -4.3141618001       14.6634676107
  H         1.5880188979       -2.8093660463       15.8670073966
  C         3.2823789937       -1.6040612673       10.3017091856
  C         4.0437921382       -2.7120805556        9.9045321653
  C         4.0181877803       -3.1204630401        8.5316652145
  C         3.2336293782       -2.3716968151        7.6662981012
  C         2.3660832296       -1.3356783369        8.1110110633
  C         2.3690809105       -0.9501252743        9.4456905154
  H         1.8465237888       -0.0732713317        9.8501399436
  H         1.7309283107       -0.9372376947        7.3189156359
  H         3.2607609929       -2.4465772155        6.6059814597
  H         4.7961502456       -3.9095488796        8.3030257052
  H         4.6559490219       -3.2064127171       10.6642971497
  C        11.7155792696       -1.1904167344       13.8769953214
  C        12.6851068750       -0.4588782869       14.6124722535
  C        13.8124660678        0.1870009464       14.0239918568
  C        14.8200976242        1.0033263204       14.7106847965
  C        15.8061300153        1.6463700041       13.9196382713
  C        12.5510898987       -0.1305221733       16.0367158659
  C        11.7014142615        0.9239902001       16.4341794420
  C        11.7296158621        1.4169698175       17.7134141547
  C        12.7098604179        0.9677355795       18.6061831562
  C        13.5792665107       -0.0438710353       18.2603581068
  C        13.4845514727       -0.6564651652       16.9494582963
  H        14.7070929727        1.1582798184       15.7619612113
  H        16.3414820767        2.4157287944       14.3960902837
  H        10.9150296637        1.1828000219       15.7250104785
  H        11.0095660589        2.1973576414       17.9778463192
  H        12.5656810946        1.2747854925       19.6289391414
  H        14.3898125990       -0.2888447878       18.9890169004
  H        14.1193417680       -1.5444750853       16.7105809796
  C        11.8245977767       -1.2378946801       12.3848308669
  C        10.7962539513       -1.8942634608       11.6382509615
  C         9.6773541139       -2.3223281889       12.3256501926
  C         9.4777802420       -2.1197613510       13.7676339958
  C        10.6091462336       -1.8380046161       14.5170712477
  C        13.9205937741        0.1137005839       12.5720132990
  C        12.9163259242       -0.5288408723       11.7878134253
  C        12.8788666176       -0.2461450415       10.3217311373
  C        12.0379918519        0.8057478099        9.9868217972
  C        11.8895708125        1.1617745062        8.6534383250
  C        12.6753261799        0.5716665117        7.6474013693
  C        13.5434053842       -0.4670318647        7.9456375885
  C        13.6451185817       -0.8512487630        9.2907650489
  H        14.2142506232       -1.7628878437        9.5295635993
  H        14.2647625948       -0.8079396418        7.2171340835
  H        12.5780657262        0.8839394854        6.5572149953
  H        11.1030982340        1.9122250616        8.4510020796
  H        11.3984564832        1.2849660523       10.6994666701
  C        15.0142020225        0.7344501555       11.8641258915
  C        15.9763802871        1.4280002901       12.5239559540
  H        16.8126862995        1.9762551558       11.9553815927
  H        15.0379838694        0.6098146760       10.8039461906
  C        10.5372188657       -2.0929627104       16.0459893680
  C        11.2985393671       -3.1526700913       16.5971469657
  C        11.3398463694       -3.4379118025       17.9566190736
  C        10.5247769977       -2.7035605369       18.7903171048
  C         9.7855942412       -1.6087036079       18.2909824724
  C         9.7230662115       -1.3165456490       16.9115671644
  H         9.1021935517       -0.5049660838       16.5185010048
  H         9.1250804145       -1.0943318513       18.9856628856
  H        10.4543194453       -3.0359470329       19.7918183620
  H        12.0428570224       -4.2374061480       18.2693869214
  H        11.8960987640       -3.7184685258       15.9373329374
  C         8.2191063717       -2.4065518109       14.3644712242
  C         7.1523490876       -2.8093165772       13.6071500781
  C         7.3022484159       -3.0523074244       12.2109896936
  C         8.5422912128       -2.8926423037       11.6205604548
  H         8.6228830173       -3.0998421202       10.5779170914
  H         6.5165493866       -3.5164076863       11.6376989818
  H         6.2157991992       -2.7805297713       14.1175844304
  H         8.0893896567       -2.2843771562       15.4375465414
  C        10.9317129031       -2.2480061206       10.1731366881
  C        11.7852573380       -3.3043969926        9.8561814639
  C        11.8220177957       -3.7536551827        8.5444468015
  C        11.1542038662       -3.0907801338        7.5342095345
  C        10.3037679438       -2.0472774893        7.8041272661
  C        10.1101849490       -1.6656694409        9.1256489968
  H         9.3644716106       -0.9036325051        9.3628449865
  H         9.7268621926       -1.4974251226        7.0532468315
  H        11.3933242337       -3.2665231278        6.4798264372
  H        12.5300900112       -4.5559854752        8.2602736646
  H        12.4148901407       -3.8409808928       10.5693548402
