140

  C         3.9326583185        0.2472423612       15.2475908079
  C         4.9547980576        0.8960327979       15.8852018262
  C         6.0507730562        1.3960398460       15.1261085506
  C         7.1993370284        1.9182516465       15.7907426793
  C         8.2080757045        2.5249057291       15.1492107289
  C         4.9233861524        1.2453083862       17.3305851115
  C         3.9802949235        2.1954624106       17.7726818014
  C         3.9353650895        2.4912736583       19.1622491273
  C         4.6841103379        1.8105465309       20.0910241349
  C         5.7526284474        0.9922847336       19.5918874218
  C         5.8177190802        0.7174023102       18.2397117511
  H         7.2903173285        1.8466160631       16.8783897597
  H         9.1130934750        2.8839413697       15.6280068559
  H         3.2725014162        2.6634053898       17.0638045143
  H         3.1583282989        3.2003468486       19.4521174534
  H         4.6009829818        2.0672024293       21.1264716424
  H         6.5090276228        0.6011989936       20.2489433963
  H         6.5255108896        0.0325438166       17.8378611461
  C         3.8337857157        0.3763427127       13.7681671579
  C         2.7947382064       -0.3676298749       13.0758851757
  C         1.7105817269       -0.8350474670       13.7768410303
  C         1.8292420436       -1.0144339570       15.2076421261
  C         2.9812880824       -0.6381633296       15.8936933961
  C         6.0158586425        1.5409677218       13.7109424878
  C         4.8429574469        1.0752094401       12.9995000826
  C         4.7915103193        1.4046518382       11.5393332706
  C         3.9902088630        2.4709408284       11.0398398893
  C         3.9321467030        2.7887723713        9.6972353837
  C         4.7830172964        2.1293190900        8.7541131739
  C         5.5654390023        1.1494407060        9.2281459208
  C         5.5679017850        0.7393140847       10.5640041945
  H         6.1580278094       -0.1008228617       10.8124627662
  H         6.1352134361        0.5712063690        8.5267174054
  H         4.5853912142        2.4035354055        7.7245315845
  H         3.2016433978        3.4888459271        9.3431060382
  H         3.4098462255        3.0495010976       11.7658826629
  C         7.1284608176        2.1138856722       13.0371700244
  C         8.1919193244        2.6099093919       13.7090511925
  H         9.0590099316        3.0768339080       13.3093779899
  H         7.1477491801        2.1191886278       11.9389731441
  C         3.0809376681       -0.8629431941       17.3679776068
  C         3.9721685871       -1.8917672894       17.8141241119
  C         3.9589996900       -2.3819700010       19.0786486612
  C         3.1033053713       -1.7229727380       20.0890873235
  C         2.2446471738       -0.7867761316       19.6609030619
  C         2.1964898230       -0.3758023088       18.2690110293
  H         1.4589393434        0.3650242253       17.9644484809
  H         1.4889950051       -0.4687180212       20.3096342174
  H         3.0177312770       -2.1638275128       21.0761845245
  H         4.4692567629       -3.3110393658       19.2789255819
  H         4.6769752426       -2.4197229311       17.0915470338
  C         0.8069847599       -1.8290230250       15.8297901132
  C        -0.1772819931       -2.4692565182       15.1373149199
  C        -0.3003276437       -2.2722059537       13.7346162072
  C         0.6564622147       -1.4875905959       13.1298468129
  H         0.5399496615       -1.3856034766       12.0811276812
  H        -1.1384980859       -2.7520167770       13.1907885042
  H        -0.8278641879       -3.2452427442       15.7190216919
  H         0.9472382374       -2.1802599241       16.9058865690
  C         2.7712873962       -0.7067157904       11.5927312772
  C         3.3324070947       -1.8890251108       11.2470406668
  C         3.3469809012       -2.2099150194        9.8649583824
  C         2.7362282420       -1.4224919320        8.9087299281
  C         2.0900607841       -0.2526052794        9.2880385284
  C         2.0595012557        0.0681383048       10.6545829690
  H         1.5910135597        1.0609633405       10.8945796604
  H         1.4851362403        0.3269934433        8.6185205291
  H         2.7858972408       -1.6921658582        7.8853964570
  H         3.7132535992       -3.2192464089        9.5842645309
  H         3.6838543998       -2.4974243592       12.0564443930
  C        10.8246679498        0.1220624563       14.7427796725
  C        11.9479069957        0.7073616040       15.4208042876
  C        12.9891578271        1.2725529516       14.6986719620
  C        14.0881864792        1.7718287947       15.4587086033
  C        15.1020544688        2.3949901882       14.7640653598
  C        11.9715989366        1.0247648709       16.8947942846
  C        11.3670863810        2.2167479331       17.3470132056
  C        11.4194520736        2.6880309125       18.6612784820
  C        12.0791103138        1.8562168000       19.5937572738
  C        12.6803711652        0.6782011239       19.1587217610
  C        12.6799622009        0.2143974248       17.8432510929
  H        14.0558189803        1.5236187344       16.4841101989
  H        15.9472747524        2.9514842402       15.2255176940
  H        10.7508490526        2.7905376692       16.6571421039
  H        10.9666522830        3.6297428308       18.8809281518
  H        12.1317976921        2.1701466310       20.6524661455
  H        13.0210285323       -0.0204254103       19.9500683395
  H        13.1218592344       -0.6868284451       17.5139590527
  C        10.7346650559        0.1669389986       13.2773360314
  C         9.7143889495       -0.4621906940       12.5668823256
  C         8.7031907434       -1.2165749853       13.2844157717
  C         8.7338743608       -1.1326603450       14.7207293510
  C         9.8820976571       -0.5999581523       15.4363595277
  C        12.9187957842        1.3075738983       13.2542583885
  C        11.7391054650        0.9226216585       12.5603587207
  C        11.7053008862        1.3880588110       11.1018632529
  C        10.8339515799        2.4381161295       10.7464953657
  C        10.9067674619        3.0106926440        9.3625351781
  C        11.9046875788        2.6073166193        8.4480593676
  C        12.8153331022        1.6452371917        8.8316456968
  C        12.6827040521        1.0691172473       10.1022670980
  H        13.4494103804        0.2699943974       10.3774343242
  H        13.6007877507        1.3618664064        8.1598554594
  H        11.8933139523        3.0643806987        7.4272769825
  H        10.1632054520        3.7225951995        9.0164152225
  H         9.9577277350        2.7339920004       11.3160139323
  C        13.9351865762        2.0690443896       12.6134033637
  C        14.9919689113        2.5851828796       13.3503241953
  H        15.6932486635        3.3287665608       12.9217136601
  H        13.8106653778        2.3399497604       11.5945050314
  C         9.9155796047       -0.8611422622       16.8820503194
  C        10.2377217048       -2.1472659996       17.2972870801
  C        10.1784982031       -2.4845868612       18.6769516533
  C         9.7497853468       -1.5442826469       19.6375828624
  C         9.3764080192       -0.3276763326       19.1439064619
  C         9.4066045403        0.0534853529       17.7778908592
  H         9.0456635523        1.0616833902       17.4737393824
  H         9.1586406634        0.4595462140       19.8664297872
  H         9.6571358981       -1.8826738285       20.6588279363
  H        10.5802738869       -3.4391528052       19.0344289138
  H        10.7088795357       -2.8191226787       16.5615540431
  C         7.6034402450       -1.7094412530       15.4026580510
  C         6.6050061182       -2.3201859714       14.7297847251
  C         6.6298783750       -2.4278787684       13.3096992862
  C         7.6631479086       -1.8227876217       12.6316656032
  H         7.5878636767       -1.7620547089       11.5603053056
  H         5.8793224049       -2.9573548280       12.7239077850
  H         5.8208389287       -2.8408857188       15.2991989426
  H         7.4839592257       -1.7395100889       16.4760889640
  C         9.8004455183       -0.7631191644       11.0671526086
  C        10.7583922034       -1.7377135331       10.6484726116
  C        10.7895266983       -2.2202761552        9.3381774231
  C         9.9266496152       -1.6594496403        8.3884645767
  C         9.0227437427       -0.6786699383        8.7424616906
  C         8.9416355174       -0.2576163592       10.0528632043
  H         8.1016165240        0.4497776492       10.3049395373
  H         8.2579380985       -0.3245809740        8.0650219233
  H         9.9565681927       -2.0498356606        7.3603997758
  H        11.3099280003       -3.1560460854        9.1062037475
  H        11.5404992297       -2.0521414804       11.3702868064
