140

  C         1.2681646923        1.1669691654       14.9939763235
  C         2.4150631153        1.7236576418       15.6104899772
  C         3.4996807019        2.3327864678       14.8040627203
  C         4.7170502568        2.7783957798       15.3883655248
  C         5.7093023673        3.4566900487       14.6279932878
  C         2.3797677255        2.1062088911       17.0825346447
  C         1.3372694783        3.0354435832       17.4439692090
  C         1.1774697493        3.4845578493       18.7423614967
  C         1.9954973616        2.9763605364       19.7042403631
  C         3.0282834030        2.0700230258       19.4277676861
  C         3.1687740371        1.5897043033       18.0570866602
  H         4.6324242214        2.7975512659       16.5228938084
  H         6.6328377127        3.6193670874       15.1300472324
  H         0.7287562494        3.4675139643       16.6674306280
  H         0.3671466915        4.1718839897       18.9240798555
  H         1.9182081805        3.3920958099       20.7002450311
  H         3.8153520786        1.8513509703       20.1474176823
  H         3.8960511049        0.8332186079       17.7697016107
  C         1.2301784251        1.0399370257       13.5119245956
  C         0.1512802562        0.3567255510       12.8462852946
  C        -0.9331823030       -0.1081375753       13.6435633028
  C        -0.8742172693       -0.0050207567       15.1516022935
  C         0.2499089343        0.4902721766       15.7887955992
  C         3.3054382786        2.4277188049       13.3837070131
  C         2.1879982581        1.8331599597       12.7260272030
  C         2.0918828678        2.1368947830       11.2222177547
  C         1.2600196255        3.2410114762       10.7669203322
  C         1.3701439847        3.6781433057        9.4704789394
  C         2.2550028092        3.0403158400        8.5946639037
  C         3.0704112900        1.9828650794        9.0093511745
  C         2.9848249803        1.5341330935       10.3129020572
  H         3.5867131509        0.6915075458       10.6676788043
  H         3.6053462472        1.4912118256        8.2040608739
  H         2.3804547742        3.5396653072        7.6292004057
  H         0.9050385223        4.6507840584        9.1465985057
  H         0.5457162840        3.7535108900       11.4456411856
  C         4.2138564289        3.2848201664       12.6444389176
  C         5.3586605662        3.6847225832       13.2633777638
  H         6.1040742413        4.2342567591       12.6293104128
  H         4.0846157068        3.6011258330       11.5592691797
  C         0.4469322643        0.0537120396       17.2377933902
  C         1.1757413932       -1.1425064185       17.4556935265
  C         1.2505772680       -1.7583217744       18.7248060487
  C         0.5561390964       -1.3057866600       19.8217966570
  C        -0.2146502086       -0.1775294852       19.5205822451
  C        -0.2557728667        0.5186035710       18.2929708489
  H        -0.8253411897        1.4648987226       18.3616664134
  H        -0.7679061171        0.2532903460       20.3559432591
  H         0.8059145616       -1.6156850543       20.8322448274
  H         2.0367563803       -2.5972559712       18.7967556370
  H         1.7685944053       -1.4723856472       16.5975458695
  C        -2.0607109825       -0.4798772050       15.8616041299
  C        -3.1527677340       -0.9504785667       15.2067001089
  C        -3.1565793403       -1.0496719271       13.7973701349
  C        -2.0938807816       -0.7989747624       13.0495038672
  H        -2.0985646667       -1.0469636532       12.0041618178
  H        -4.0716951848       -1.4255971589       13.3762541965
  H        -3.9960280004       -1.3123944176       15.8003402032
  H        -1.9558462218       -0.4352932313       16.8845186511
  C         0.1680295451        0.0693093313       11.4106624967
  C         0.9514940550       -1.0412469501       10.9867580654
  C         0.8451311811       -1.5284972749        9.6662389013
  C        -0.0689089164       -1.0133414945        8.7427701375
  C        -0.9810235207       -0.0330737731        9.2205609829
  C        -0.8169257932        0.5201484410       10.4889829008
  H        -1.4549564216        1.3284244293       10.8245919252
  H        -1.7678925562        0.4449097852        8.5727867617
  H        -0.0939939377       -1.4386226218        7.7627144567
  H         1.4747737878       -2.4448913070        9.3821613990
  H         1.7674636976       -1.4727255202       11.5949059925
  C         8.5257485314        1.1023957187       14.8225055441
  C         9.5415265815        1.8565192137       15.4961781441
  C        10.6345616569        2.3964886324       14.7367993457
  C        11.7977441782        2.9907740910       15.4660928279
  C        12.8977267167        3.5062688522       14.7880469524
  C         9.5773469378        2.0660378926       16.9948030014
  C         8.5947294537        2.9553519044       17.4037111385
  C         8.5734259177        3.3877571677       18.7265036949
  C         9.4629388007        2.8420738254       19.7060939793
  C        10.4414798172        1.9761603735       19.2243792435
  C        10.5206934161        1.6042711543       17.8970476239
  H        11.7560989632        2.9022224332       16.5368952056
  H        13.8427136657        3.7306603324       15.2753823907
  H         7.7897556975        3.2908146907       16.7282838038
  H         7.9621554807        4.2006528278       18.8941872564
  H         9.5690768041        3.3549283832       20.6655396353
  H        11.0971447631        1.3904553400       19.8496346278
  H        11.2115616041        0.8769203164       17.5025960612
  C         8.4996106332        1.1830896358       13.3514652948
  C         7.4261922921        0.5187796364       12.7130720903
  C         6.3596862104       -0.0391636124       13.3999326198
  C         6.3630546347       -0.1744638814       14.8272451639
  C         7.5944011906        0.2494036461       15.5063440967
  C        10.6040241856        2.4668436821       13.2915947216
  C         9.4747985697        1.9384585011       12.6511813834
  C         9.3572482387        2.2468489341       11.2116205296
  C         8.6289067949        3.3768449141       10.7841935473
  C         8.7864203658        3.8299068810        9.4737863136
  C         9.4798155347        3.1089549525        8.5042520581
  C        10.2067634966        2.0045205745        8.9160296055
  C        10.2009825954        1.6205265819       10.2575036507
  H        10.7225122314        0.6785168137       10.5366042209
  H        10.7164003564        1.4099327469        8.1901734736
  H         9.4587801285        3.3207516277        7.3949635865
  H         8.2206331594        4.7192064787        9.1274029291
  H         7.9570589454        3.9011258439       11.4348960038
  C        11.7123625413        3.0910204915       12.6217589938
  C        12.9052657169        3.4733862780       13.3399150849
  H        13.7136982206        3.9182459621       12.8009806358
  H        11.6112022538        3.0692098214       11.5709625951
  C         7.6986835337       -0.0967842252       16.9981837415
  C         8.3998452035       -1.2553032285       17.3241367959
  C         8.2315308092       -1.8844679651       18.6130857994
  C         7.4837713846       -1.1580120322       19.5405557340
  C         6.8083725562        0.0108777636       19.2038353195
  C         6.9427677160        0.5607591531       17.9343296056
  H         6.4205830919        1.4287479539       17.5327213950
  H         6.2471975598        0.4949749539       19.9927365424
  H         7.4317027497       -1.5044354366       20.5882755444
  H         8.8539520527       -2.7470005818       18.8905762322
  H         8.9795080766       -1.7163307932       16.5172690575
  C         5.3567257533       -0.8333119316       15.5549343752
  C         4.2988796416       -1.4283703436       14.9506777358
  C         4.2876329165       -1.4221254611       13.4794947602
  C         5.2606723136       -0.8142898114       12.7237972786
  H         5.1635273655       -0.7690500490       11.6536187931
  H         3.4203158110       -1.8933479385       13.0453275258
  H         3.6099518027       -2.0300800650       15.5179409165
  H         5.4698901582       -0.8367612716       16.6516596971
  C         7.4536403924        0.2040000903       11.2439716380
  C         8.1564278358       -0.9531989208       10.7833086206
  C         8.0443264218       -1.3215396539        9.4217974761
  C         7.2279332742       -0.6099018156        8.5496626749
  C         6.5249619113        0.4908753728        9.0118115356
  C         6.7699489520        0.9854993285       10.3081480383
  H         6.2607114120        1.8951737112       10.7209675690
  H         5.8951589047        0.9851009536        8.3068826503
  H         6.9498054847       -0.9765493086        7.6190111915
  H         8.5775230530       -2.2211998956        9.1572794213
  H         8.6745644961       -1.5606212042       11.4942808433
