140

  C        10.0853861918        7.5827560800        1.2135601273
  C         9.0403882108        8.2690934455        1.8296918422
  C         7.9380911408        8.7096225778        1.0957329684
  C         6.9139632251        9.5015611147        1.7413067928
  C         5.9017685405       10.1190167571        1.0125787207
  C         9.0638542092        8.4139802739        3.3085662777
  C         9.9373262313        9.4009743379        3.8035147279
  C         9.9386804310        9.6943031896        5.1768501977
  C         8.9628491446        9.1087766884        6.0383983882
  C         8.1611441206        8.0650995512        5.5544976944
  C         8.2487428753        7.6985787314        4.2388632996
  H         7.0359133337        9.5885415789        2.8054364200
  H         5.2050371574       10.8411452991        1.4709188385
  H        10.6187693732        9.9432661326        3.1370758458
  H        10.6138127259       10.4493257731        5.5111183063
  H         8.8847825854        9.6568244836        7.0377545503
  H         7.4253845987        7.6199486355        6.1894449025
  H         7.8060874279        6.8026607206        3.8384212349
  C        10.1309203862        7.4610405761       -0.3346030268
  C        11.1489211164        6.7694053084       -0.9711560624
  C        12.2341436715        6.2242293589       -0.1884700530
  C        12.1234661953        6.1992266174        1.2930045031
  C        11.0187248160        6.8503447946        1.9575998499
  C         7.9738968100        8.6686787261       -0.3934878433
  C         9.0744569307        8.1344875199       -1.0949942828
  C         9.2399993250        8.5452040472       -2.6208580464
  C        10.1664280272        9.5348577656       -2.8752263038
  C        10.0634651710       10.1887549788       -4.1223242375
  C         9.1022847234        9.8247062704       -5.0354850482
  C         8.2584182757        8.6994805405       -4.8414807962
  C         8.3396363315        8.0765552176       -3.6222252152
  H         7.7838901987        7.1004498727       -3.3524871612
  H         7.5500892791        8.3589769457       -5.6134754051
  H         8.9157042393       10.2846407434       -5.9957652584
  H        10.8049757051       10.9467778421       -4.4150104720
  H        10.9279229452        9.8362949908       -2.1911162882
  C         6.9040842970        9.4529899239       -1.0817345510
  C         5.8848018005       10.0250331013       -0.3959790188
  H         5.0794996203       10.6815747782       -0.7791090815
  H         6.9015915108        9.5778050802       -2.1934443795
  C        10.8977256160        6.4661699212        3.4047375522
  C        10.1729278043        5.3390604787        3.7763522750
  C        10.2357022097        4.6976509545        5.0073149078
  C        11.0657048243        5.2695087601        6.0359216693
  C        11.7520509528        6.4483592430        5.7208809734
  C        11.6656360998        7.0185737170        4.4216110718
  H        12.2044831768        7.9022116299        4.2534709745
  H        12.3546880173        6.8445349967        6.5612862448
  H        10.8802462019        4.8741537851        7.0470327979
  H         9.5777655242        3.8398852024        5.1828340200
  H         9.5780191536        4.6989298193        3.0967368949
  C        13.2554388286        5.5632901942        1.9621617866
  C        14.2214888169        4.8548099034        1.2426269581
  C        14.3113482759        5.0302213962       -0.1490267581
  C        13.3789688156        5.6434545304       -0.8707904391
  H        13.5146224527        5.6906170389       -1.9213919280
  H        15.1998581865        4.6106673633       -0.7083694760
  H        15.1035629946        4.3394058731        1.6564145939
  H        13.1389061619        5.5179117826        3.0568344034
  C        11.0893004794        6.3874418436       -2.4835956419
  C        10.2540294503        5.3449801517       -2.9349553643
  C        10.1469575425        4.8498333062       -4.2411472591
  C        11.1249761708        5.3715581915       -5.1057027120
  C        11.9739487364        6.4191546527       -4.6777088297
  C        11.9338438136        6.9901404758       -3.4116488911
  H        12.4406411257        7.8918550750       -3.1547156967
  H        12.6875235656        6.7493870286       -5.3816003927
  H        11.2067998332        5.0996031384       -6.2228726201
  H         9.4783054913        3.9887323157       -4.4421168252
  H         9.6624347219        4.9480760747       -2.0952342629
  C        17.1539039529        7.4303835150        1.2780952690
  C        16.0982643730        8.1017809806        2.0119301011
  C        15.0007569759        8.6216733117        1.2570207276
  C        13.8813996724        9.2118852597        1.9191814485
  C        12.9392859776        9.9126186042        1.1633109247
  C        16.1075587250        8.3692484817        3.4765254718
  C        16.9469066848        9.4613875121        3.9200838515
  C        16.9868575227        9.8114121110        5.2481336854
  C        16.0527602797        9.2601784944        6.1292417158
  C        15.2133568050        8.2118154096        5.7017718948
  C        15.2211579932        7.7362390126        4.4066799982
  H        13.8646891894        9.2780602135        3.0103164392
  H        12.1069599852       10.3055609780        1.7377941082
  H        17.4941657083       10.0284212005        3.1552786616
  H        17.8363885977       10.4039385141        5.6750295160
  H        15.9938140812        9.5768906066        7.1636579564
  H        14.5032479344        7.7868740206        6.3794286867
  H        14.4871172315        6.9701168177        4.0827249100
  C        17.1795719358        7.5175684935       -0.1869739134
  C        18.1927157438        6.7633526626       -0.9338685263
  C        19.3297647440        6.2022032058       -0.2733659505
  C        19.2883627589        6.0848809736        1.2329334918
  C        18.1797471056        6.6207377642        1.9516167837
  C        15.1025480725        8.7347785526       -0.2044771412
  C        16.2345325454        8.2082539508       -0.8748725069
  C        16.2755971095        8.6061756144       -2.3189286182
  C        17.0585214375        9.6806641250       -2.7265847395
  C        16.9690371475       10.1985059236       -4.0584124973
  C        15.9699871611        9.7153254514       -4.9542118890
  C        15.2173457853        8.5711108468       -4.5764162195
  C        15.3309181868        8.1286913148       -3.2698594624
  H        14.6610287097        7.3052338917       -2.9579446385
  H        14.4024197481        8.1958845961       -5.1929858144
  H        15.8450777567       10.0248487712       -6.0129276894
  H        17.5152989880       11.1001259468       -4.2807820857
  H        17.7986533914       10.1029599727       -2.0802071877
  C        14.1331965493        9.5380340522       -0.9367290756
  C        13.0180615320       10.0564019985       -0.2668793888
  H        12.1417950081       10.6522813027       -0.7007856688
  H        14.2938794625        9.5175009664       -2.0296414720
  C        18.1252067459        6.1652135146        3.3892397371
  C        17.1882238889        5.2998086532        3.8191098244
  C        17.0703102719        4.8233348841        5.1326260127
  C        17.9532504233        5.3027035953        6.0864406432
  C        18.9874604824        6.1238781219        5.6938518374
  C        19.0549177437        6.6212036707        4.3882209769
  H        19.7952015687        7.2679944283        3.9692907070
  H        19.7501852738        6.5499589970        6.3672041409
  H        17.8773363100        5.0920895161        7.1012311490
  H        16.1691149270        4.3479959620        5.4591419647
  H        16.4516795838        4.8081562189        3.2097343381
  C        20.3754921611        5.4007177778        1.8369830367
  C        21.4560328461        4.8978792179        1.1181079370
  C        21.4503756673        4.9382282405       -0.2856088603
  C        20.3907446121        5.4797349557       -0.9790144860
  H        20.3998077728        5.5183792975       -2.0581663899
  H        22.1898219304        4.2797709942       -0.7948042334
  H        22.1858293857        4.2747711937        1.5785795099
  H        20.3745377627        5.3431732947        2.9471821184
  C        18.1018634060        6.4902393091       -2.4589600709
  C        17.3001129277        5.4409952318       -2.8438173215
  C        17.3519348565        4.9914582028       -4.1453735094
  C        18.2410992335        5.5671088110       -5.0878594326
  C        19.0839973027        6.6333277748       -4.6720966668
  C        19.0288889250        7.0893340592       -3.3374991278
  H        19.6099065095        7.8981957128       -2.9374438146
  H        19.7838072759        7.0597663686       -5.4537538392
  H        18.2947508762        5.2443555512       -6.1134785916
  H        16.8140327535        4.0747422091       -4.5035654672
  H        16.5672141071        4.9140487096       -2.1984021687
