140

  C         1.5745288444        1.1435726679       14.9474401684
  C         2.6373155358        1.8882559269       15.5710296398
  C         3.7294772256        2.4039609840       14.8251006642
  C         4.9271805132        2.9230261457       15.4406723022
  C         5.9057073786        3.4734791757       14.7264113461
  C         2.6350842821        2.0984284691       17.0565981065
  C         1.7850059951        3.2077511527       17.4265637851
  C         1.9259264467        3.8201034408       18.7242956593
  C         2.8176784161        3.2524224147       19.6490369636
  C         3.6715613854        2.2044325841       19.2320091609
  C         3.5723439686        1.5951239667       17.9832419474
  H         4.9385444843        2.8292584465       16.5008686008
  H         6.7109507257        4.0429450095       15.1846908441
  H         1.2281647496        3.7461077419       16.6410773404
  H         1.3808433935        4.6795859368       19.0320254464
  H         2.9468953719        3.6949196661       20.6115244570
  H         4.5944591369        2.0140284411       19.8319488796
  H         4.1574268787        0.7803899232       17.6897335361
  C         1.4684258742        1.1129039564       13.4578685888
  C         0.5630936358        0.3165913362       12.7501609632
  C        -0.4852318342       -0.3298454543       13.5151992272
  C        -0.4196200496       -0.2660000467       14.9874032571
  C         0.6435931361        0.3756276858       15.6776871887
  C         3.6001491794        2.5426513850       13.4073059037
  C         2.4312575925        1.9811164967       12.7951844961
  C         2.4266502678        2.2519180366       11.3206822372
  C         1.8502532146        3.4812446151       10.8896472554
  C         1.7214192452        3.7884034541        9.5565444178
  C         2.5250312219        3.0824602517        8.5845171264
  C         3.3026616187        1.9981980907        9.0145820814
  C         3.1121893578        1.5112840401       10.3110911493
  H         3.6124220920        0.5597626568       10.4858956961
  H         3.9364311007        1.5295150926        8.3060756032
  H         2.6711161982        3.4233485580        7.5648299740
  H         1.0038715388        4.5871257936        9.2858209798
  H         1.2847099148        4.0237338512       11.6720521055
  C         4.5992166494        3.2599532821       12.6813299635
  C         5.7274290655        3.7389585696       13.3210022589
  H         6.5157997205        4.2870335739       12.8074965932
  H         4.5929144492        3.4014066190       11.6096049556
  C         0.7267810557        0.0013302673       17.0853547712
  C         1.5974649145       -1.0632617504       17.3889224638
  C         1.3957105710       -1.7667670966       18.5948686463
  C         0.6219387200       -1.1218647709       19.5768717955
  C        -0.1747230884        0.0391086780       19.3374848137
  C        -0.1615334850        0.6212557479       18.0704482540
  H        -0.6983823266        1.5611347200       17.8116139636
  H        -0.8403239437        0.3821806837       20.1245493758
  H         0.4721777791       -1.3546095793       20.6512493682
  H         1.9856298482       -2.7010364541       18.8897802643
  H         2.2286535747       -1.4866452600       16.6766479849
  C        -1.5004671577       -0.9112119031       15.6151891243
  C        -2.5986414968       -1.5791889082       14.9976008762
  C        -2.5385898038       -1.6605822583       13.5709717791
  C        -1.4946345348       -1.0673752166       12.8880318032
  H        -1.5714616445       -1.1470521191       11.8311877640
  H        -3.2322000655       -2.2026598342       12.9622569726
  H        -3.3506707056       -2.0754545838       15.5378059422
  H        -1.4220720387       -0.8680554582       16.6966533888
  C         0.5973616177        0.0695802756       11.2283003463
  C         0.9637362864       -1.1459742890       10.7380236012
  C         0.8200753804       -1.3740245519        9.3901318763
  C         0.2326770492       -0.3854212357        8.5034782008
  C        -0.2559262293        0.8309467378        9.0437678519
  C        -0.1037521221        1.0130048154       10.4003993101
  H        -0.4996318413        1.9042100889       10.9142938338
  H        -0.8326635151        1.5390366891        8.4316801376
  H         0.1173235729       -0.5447652393        7.4112606149
  H         1.2182349701       -2.3428400880        8.9640430376
  H         1.5055645639       -1.7397925087       11.4197330175
  C         8.9999183477        0.8016170028       14.8247915836
  C         9.9377233524        1.6527171087       15.5613982708
  C        10.9789244120        2.2002844379       14.8173003538
  C        12.1232793068        2.7321042805       15.4966480444
  C        13.2530639515        3.1632079295       14.8139549919
  C         9.9524817927        1.7865416765       17.0993646343
  C         9.0504413974        2.6871036454       17.6610234680
  C         9.1039665209        3.0001433951       19.0086038030
  C        10.0585021211        2.4574196529       19.8159694261
  C        10.9913576839        1.5049015587       19.2944408939
  C        10.8779975011        1.1470124607       17.8939649040
  H        12.1659765726        2.6906598595       16.5882120738
  H        14.2352134639        3.3709618718       15.3473791190
  H         8.3192438497        3.1874723651       17.0097177654
  H         8.3166165480        3.7701819720       19.2583426972
  H        10.1674541739        2.6215176754       20.8153813220
  H        11.7512380828        1.0837106434       19.8936364156
  H        11.6137326309        0.4759194577       17.4626433776
  C         8.9962221326        0.8706844377       13.3872425594
  C         7.8851249386        0.2426159902       12.5950215677
  C         6.7688721514       -0.2405527832       13.2592156405
  C         6.7634483879       -0.3763868302       14.6940922852
  C         7.8426709254        0.0829347991       15.4512938017
  C        11.0575161066        2.0676259139       13.3943765136
  C         9.9495594302        1.5299834678       12.6741228590
  C         9.8516973028        1.7270032205       11.2170592665
  C         8.9707214288        2.7718199040       10.7882631558
  C         8.9968039481        3.1183876880        9.4427561495
  C         9.9919066579        2.6044427329        8.5759896748
  C        10.8728159255        1.6291706324        9.0051643799
  C        10.8029034735        1.1882715611       10.3620135862
  H        11.4769421460        0.4654618798       10.7669088981
  H        11.6008579778        1.1436286871        8.3340927967
  H        10.1004860332        2.7510469461        7.4733281095
  H         8.3440651235        3.9367155501        9.0241368030
  H         8.2243917270        3.1998340945       11.4132559278
  C        12.1844329371        2.7801832339       12.7077577898
  C        13.2383319749        3.2523539776       13.3809786433
  H        14.0936068346        3.7412020504       13.0015094102
  H        12.1901740535        2.8707071094       11.5880596822
  C         7.8123535118       -0.3598285202       16.9072713877
  C         8.7577310511       -1.2459532355       17.3545537203
  C         8.7309206680       -1.6428717132       18.7465492691
  C         7.9030080972       -1.0072731030       19.6629212280
  C         6.8546488223       -0.2167505482       19.1212041305
  C         6.8982546132        0.2004492351       17.8098169692
  H         6.2670555797        1.0220921497       17.4059781591
  H         6.1305227584        0.3288056477       19.7921891781
  H         7.9544544437       -1.1993482375       20.7491402617
  H         9.4755064635       -2.3716179985       19.0387661512
  H         9.4470083902       -1.7325321620       16.6754805536
  C         5.5926238233       -0.9869222722       15.3349410139
  C         4.6905004468       -1.6481680677       14.5618914447
  C         4.6957192093       -1.4608810051       13.1431137171
  C         5.6767808038       -0.7621621565       12.5204882961
  H         5.5798108908       -0.7782483072       11.4150156442
  H         3.9898768019       -1.9198547357       12.4137308414
  H         3.8139576109       -2.0978017428       15.0140051787
  H         5.4749055984       -1.0402585926       16.4059032709
  C         7.9485099004       -0.2159648248       11.1593085016
  C         8.8703920330       -1.1895584939       10.6890432348
  C         8.6351356469       -1.7084140734        9.3793074350
  C         7.7535928751       -1.1735677151        8.4536044356
  C         6.9406691873       -0.0818387426        8.8692325332
  C         7.0479956153        0.3196667824       10.1923302947
  H         6.3383100104        1.0146746714       10.6796348248
  H         6.2541743339        0.3264469891        8.1974718413
  H         7.6007234519       -1.6546753774        7.5091042287
  H         9.2584012153       -2.5234614784        9.0131193076
  H         9.6921956470       -1.5969171680       11.2996483258
