140

  C         4.7012676934        0.2391099865       16.2280291060
  C         5.7536642437        0.8619180816       16.9231256088
  C         6.8863457605        1.3825863071       16.2194195605
  C         8.1446812829        1.7698230076       16.8331785845
  C         9.2085107758        2.1796689793       16.0193409161
  C         5.5886853775        1.3338594282       18.4022169254
  C         4.7178434465        2.4782787931       18.6938622571
  C         4.7813594004        2.9338881794       20.0261140343
  C         5.4655042952        2.2691310377       21.0358738370
  C         6.4054625640        1.2924695723       20.7059416286
  C         6.4954975983        0.9206126879       19.3471162933
  H         8.3268418751        1.5537103988       17.9100999048
  H        10.1985649600        2.3587231819       16.5043166216
  H         4.1615629667        2.9897098255       17.9367209220
  H         4.2239935326        3.7832204745       20.1915868716
  H         5.2228960985        2.5297326339       22.0334102655
  H         7.0183422487        0.7608678680       21.4488275411
  H         7.2311688343        0.1040423631       19.0464863146
  C         4.6900018318        0.2715080924       14.7279459158
  C         3.6721494846       -0.4898668755       14.0388994980
  C         2.5737932286       -1.0000287831       14.7557504496
  C         2.6338808540       -1.1436564687       16.2194140998
  C         3.6595199940       -0.5095130051       16.9408017936
  C         6.7747120516        1.5851966175       14.7716291345
  C         5.6573408606        1.0809850552       14.0629172814
  C         5.6014803365        1.3955929968       12.6195266221
  C         4.7963431017        2.4917508930       12.1265076013
  C         4.8508919735        2.7014635143       10.7455792295
  C         5.7180776332        1.9725215354        9.9059301687
  C         6.5846527233        0.9783463922       10.4099209549
  C         6.4981561641        0.7026632078       11.7812198657
  H         7.0427989297       -0.1872671749       12.1076218535
  H         7.4037453644        0.5449228578        9.7953972931
  H         5.7979423938        2.2918244704        8.8549496221
  H         4.2956329221        3.5614746671       10.2911495811
  H         4.1249429727        2.9549828424       12.7806021018
  C         7.8612033641        2.2738796441       14.0750935292
  C         9.0460617151        2.4877655584       14.6345426743
  H         9.8531233042        2.8687545781       13.9952607108
  H         7.8588150790        2.3424998068       12.9934003051
  C         3.8338899906       -0.8577634165       18.3247738718
  C         4.7582944606       -1.8480687275       18.7727502361
  C         4.9077603583       -2.1623197379       20.1386123819
  C         4.0781375240       -1.6120459992       21.0856064097
  C         3.1747450476       -0.6148700302       20.6441112265
  C         2.9804341506       -0.3279912399       19.3125130513
  H         2.3481770160        0.5299090021       18.9507961740
  H         2.7057505791        0.0495094657       21.4257504588
  H         4.1855773787       -1.9480395128       22.1172733489
  H         5.6501340168       -2.9104861516       20.4049824187
  H         5.3680816229       -2.3932998066       18.1110870820
  C         1.6626709849       -1.9988171723       16.8418742360
  C         0.6938554717       -2.6293271008       16.1133494025
  C         0.6005097171       -2.5070097333       14.7334582331
  C         1.5536171401       -1.7289262946       14.0728027506
  H         1.5290309489       -1.7161136498       12.9621681441
  H        -0.1483795303       -3.0480598896       14.1334279370
  H        -0.0833099629       -3.2308296263       16.6331719991
  H         1.8781383341       -2.1763009744       17.9143125892
  C         3.8558937947       -0.9282929333       12.6099128639
  C         4.8097740335       -1.9550447620       12.3685417210
  C         4.8524249376       -2.4108524953       11.0604792008
  C         4.0363898697       -2.0112328602       10.0308798340
  C         3.0880714539       -1.0323956561       10.3360661130
  C         3.0628063156       -0.3653152261       11.5694149584
  H         2.3870726860        0.5153709618       11.6534974367
  H         2.5448008692       -0.5533778926        9.5077107218
  H         4.2821654247       -2.3880549577        9.0376272853
  H         5.6341492959       -3.1407755628       10.8018422812
  H         5.5221935690       -2.3081714064       13.1327180521
  C        11.8783859408        0.0073004396       15.8200961824
  C        12.9988784714        0.6480348822       16.4876831626
  C        14.1264423035        1.0745205344       15.7149545532
  C        15.3428553591        1.7002406218       16.3560752330
  C        16.1737348088        2.4262444559       15.5990075991
  C        13.0863612035        0.9474085413       18.0084359831
  C        12.2776596957        2.0153409080       18.5160883168
  C        12.2120371962        2.3419841335       19.8702153338
  C        13.0507528918        1.5884770273       20.7161382699
  C        13.9441644383        0.6529550863       20.2454801124
  C        13.9389077801        0.2927091945       18.9138908537
  H        15.5021790522        1.5507228833       17.4220337494
  H        16.9320150005        3.0877434631       15.9811743978
  H        11.6165534841        2.5809616284       17.8455699150
  H        11.5956171511        3.0630494914       20.3344559078
  H        13.0324595791        1.8187324284       21.7873774809
  H        14.6186062059        0.1558139417       20.8996862272
  H        14.6246793569       -0.5040691108       18.5563576102
  C        11.8161613079       -0.0620011614       14.3185907204
  C        10.6568242655       -0.6457150441       13.7296801386
  C         9.6227212884       -1.1333468784       14.5876358577
  C         9.6757457261       -1.1297012139       16.0658855866
  C        10.8643716594       -0.5764166432       16.6615345988
  C        13.9940835671        1.1035836906       14.2663170854
  C        12.8393886606        0.6119477425       13.6108604553
  C        12.6869974005        0.9777676280       12.1850168640
  C        11.8433047782        2.0125704408       11.7471011757
  C        11.8598898135        2.4250672254       10.3989836009
  C        12.7311790161        1.8322729122        9.4965761943
  C        13.5643330649        0.7707662934        9.8427766452
  C        13.5297921857        0.3292963631       11.2286120066
  H        14.0881746016       -0.6039386981       11.4797395789
  H        14.3912738184        0.4967310319        9.2125309231
  H        12.7249678779        2.2992836412        8.4823616695
  H        11.3761157120        3.3869855745       10.1579690547
  H        11.3215847749        2.6013263121       12.4953348594
  C        15.0112508229        1.7542264074       13.4963155852
  C        15.9497801034        2.4715640846       14.1788577550
  H        16.6817358358        2.9620231894       13.5553630003
  H        15.0329497079        1.6966763500       12.4420091086
  C        11.0801724403       -0.9827227195       18.0459137357
  C        11.9723844135       -2.0766859237       18.2968584203
  C        12.0330553465       -2.6606960032       19.5706445735
  C        11.3040566289       -2.1195566995       20.6187373899
  C        10.4914732198       -1.0558219367       20.4061772124
  C        10.3378872305       -0.5421532641       19.1282327663
  H         9.6729184521        0.2713016245       18.9609445893
  H         9.9917634315       -0.5698185206       21.2910814259
  H        11.4359323671       -2.4166978573       21.6421974398
  H        12.7316608010       -3.4744579116       19.7427827636
  H        12.5114758544       -2.5184626352       17.4702881534
  C         8.6752235096       -1.7999149277       16.7938714754
  C         7.7049457099       -2.4684732830       16.1069674253
  C         7.6056281320       -2.5481449577       14.7392308298
  C         8.5570923797       -1.9072088327       14.0018145651
  H         8.5608982162       -1.9999008205       12.9015213120
  H         6.9796956157       -3.2605145669       14.2482328183
  H         7.0116372198       -2.9566625722       16.7564016010
  H         8.5892227717       -1.7998880203       17.8720473140
  C        10.5980379061       -1.1169129115       12.3384418430
  C        11.4940398834       -2.1803280475       12.2181550186
  C        11.6461427659       -2.8886858680       10.9484957479
  C        10.9737262247       -2.4877537229        9.8024314005
  C        10.0790455314       -1.3822211937        9.9612185120
  C         9.8764774653       -0.6980963435       11.2073015173
  H         9.2884606366        0.2043226754       11.2210614405
  H         9.6328684307       -0.9981396817        9.0221601254
  H        11.1758055494       -2.8572711012        8.7827112713
  H        12.4631457209       -3.5994163768       10.8063711965
  H        12.0686763164       -2.4272995962       13.0973230869
