140

  C         2.8238033243        0.2325472579       14.7149026210
  C         3.7784852005        1.0200010515       15.4705857583
  C         4.8256065927        1.7389739278       14.7681709369
  C         5.8421571605        2.4367285496       15.5239419185
  C         6.8453256462        3.1313635140       14.7980065156
  C         3.6960468177        1.2976298920       16.9852042293
  C         3.0516237257        2.5117528559       17.2757943745
  C         3.0445210221        3.1011762350       18.5467411593
  C         3.7217155165        2.3616019321       19.5425591898
  C         4.5170517129        1.2397067657       19.2286942952
  C         4.5818485867        0.6963325875       17.9717551701
  H         5.7885379915        2.5808175760       16.6363030925
  H         7.6154926687        3.7319255684       15.2636543020
  H         2.5568615036        3.0490516826       16.4686403769
  H         2.6648523167        4.1002181058       18.7374862363
  H         3.7114443488        2.7907282313       20.5601981510
  H         4.9966208149        0.7058707846       20.0167818407
  H         5.1017246653       -0.2142683543       17.7856875449
  C         2.8480048104        0.2352748452       13.2586475528
  C         1.8822574793       -0.5257723411       12.4796978097
  C         0.7547301152       -1.0355841500       13.1845683397
  C         0.6950401031       -1.0135795280       14.5798746107
  C         1.7652591752       -0.4667707235       15.3891454803
  C         4.8874505036        1.7522605785       13.3568007432
  C         3.8876597028        1.0400474508       12.6589476659
  C         3.8486912537        1.3911146813       11.1758028437
  C         2.8996143409        2.3153849853       10.6942103737
  C         2.7687511179        2.6534193668        9.3361209499
  C         3.4613459356        1.8435111430        8.4042405847
  C         4.4028117411        0.9468946701        8.8886280201
  C         4.6077880100        0.7147963874       10.1944443592
  H         5.2993283798       -0.0419940819       10.5397158295
  H         4.9643501284        0.3980125610        8.0950231858
  H         3.4786153613        2.0402901756        7.3292717125
  H         2.1667546969        3.5069999428        8.9925195427
  H         2.3640618774        2.9432167021       11.4404566808
  C         6.0145737330        2.3834841528       12.6530972003
  C         6.9374223774        3.0841722083       13.3604790481
  H         7.6070803308        3.6303694230       12.7615749343
  H         6.0672905909        2.2631658732       11.5947113613
  C         1.7426478427       -0.6485564402       16.8471107568
  C         2.5770500764       -1.6762348584       17.3215203553
  C         2.4534057383       -2.0608961105       18.7173133480
  C         1.4027545051       -1.5420783792       19.5295312740
  C         0.4732403795       -0.6005460689       18.9552560179
  C         0.6367676404       -0.1106420236       17.6021610875
  H         0.0380944632        0.7282949611       17.3224123163
  H        -0.4262697632       -0.3329409180       19.5266036393
  H         1.2358595877       -1.9884712614       20.5382190589
  H         3.2481317710       -2.8331189979       18.9869976518
  H         3.3376893915       -2.0848810370       16.6843178199
  C        -0.5168449159       -1.6197425455       15.2209967035
  C        -1.3545639673       -2.4572542294       14.5767478684
  C        -1.2717141506       -2.5434115665       13.1346993141
  C        -0.2936234593       -1.7781343401       12.4954367480
  H        -0.1466971947       -1.7755748163       11.4174902671
  H        -1.9216071200       -3.1376597328       12.6064742985
  H        -1.9840117973       -3.1043238664       15.1469080276
  H        -0.5398779402       -1.6958841688       16.3210664441
  C         1.9592225009       -0.7862712916       10.9934889722
  C         2.6579405079       -1.9548244891       10.4977765607
  C         2.5968953645       -2.2625015064        9.1230540884
  C         1.6001874801       -1.6856728472        8.3338007721
  C         0.8100607331       -0.6420617317        8.7916657521
  C         1.0393702191       -0.1877069846       10.0758004613
  H         0.4249004166        0.6603132741       10.4531919171
  H         0.0683806899       -0.0965385098        8.2354663935
  H         1.6772330867       -1.8020960109        7.2896635488
  H         3.1560005881       -3.1279678170        8.8186952761
  H         3.1625089046       -2.5597892260       11.2231304618
  C         9.9973969748        0.5694971339       14.6304332014
  C        11.1120913623        1.2349723383       15.2822288870
  C        12.0801088534        1.9021357492       14.5766770313
  C        13.1862285155        2.5257002876       15.2248614652
  C        14.2359201232        3.0257614832       14.5081566700
  C        11.0343051410        1.5528568046       16.7400519673
  C        10.1558434103        2.5689763799       17.2055119086
  C        10.2493589926        3.0781236360       18.5734287753
  C        11.0018469881        2.4056938026       19.5177086301
  C        11.7525509328        1.3208584811       19.0321698960
  C        11.9395622817        0.9918900777       17.6667745615
  H        13.2435046290        2.5171885781       16.2937408720
  H        15.0262323281        3.6371873336       14.9861747831
  H         9.4032712891        3.0737013490       16.5661353964
  H         9.5595485532        3.8766558005       18.8051380228
  H        11.0212071766        2.6852523614       20.5882820043
  H        12.2240786547        0.6829146783       19.7725069762
  H        12.5738854374        0.2123892721       17.3167029094
  C         9.9581086415        0.6378665399       13.1099407465
  C         8.8548172236       -0.1126624674       12.4700305879
  C         7.7545696592       -0.7048651117       13.2792284379
  C         7.8962815499       -0.7244919946       14.7185720432
  C         9.0018439899       -0.1255815674       15.3677201024
  C        12.1038654887        1.8053472291       13.1388315453
  C        11.0115694813        1.2350699376       12.3821785893
  C        10.9154423933        1.5933521037       10.9440891879
  C        10.1776134328        2.6859720954       10.5514960549
  C        10.1830223505        3.1924691800        9.1986254690
  C        10.9099124872        2.4430800229        8.2419256214
  C        11.6557029043        1.3208124273        8.6460708477
  C        11.7668934985        0.9966945002        9.9933525622
  H        12.2426907437        0.1841576075       10.4262675483
  H        12.2321318918        0.7472071539        7.9494787684
  H        10.9079867133        2.9166798773        7.2413654123
  H         9.4875037501        4.0313909469        8.9937029023
  H         9.5514608584        3.1745134760       11.2866229264
  C        13.1338264752        2.4666133640       12.4296033952
  C        14.2510085967        2.9700622433       13.0781746379
  H        15.0226119350        3.5454191962       12.5110738278
  H        13.0975439611        2.3474825036       11.3482188043
  C         9.0827082419       -0.4442719143       16.8224023312
  C         9.8359567299       -1.5190571258       17.2191907752
  C         9.7755079201       -2.0227618798       18.5799953075
  C         8.8927710661       -1.4237287933       19.4955324740
  C         8.1175909871       -0.3650259669       19.0313634764
  C         8.2030261167        0.1495516225       17.7582826380
  H         7.6486582147        1.0219984915       17.4733235489
  H         7.6483594093        0.2580646680       19.7901005278
  H         8.7282767019       -1.6481587175       20.5570183123
  H        10.4399736400       -2.8384083611       18.8521206983
  H        10.4817128509       -1.8469851148       16.4669985670
  C         6.9613956672       -1.5163574622       15.5096508254
  C         5.8165015529       -2.0389877543       14.8907633162
  C         5.6223846972       -1.9317209419       13.4750009265
  C         6.5612078929       -1.3675379044       12.6721777391
  H         6.5145625984       -1.4018434693       11.5711389153
  H         4.6677977169       -2.1851244638       13.1549461340
  H         5.1208330873       -2.6019138420       15.5185192214
  H         7.1821279980       -1.7297423051       16.5580022223
  C         8.8565032964       -0.5054977683       11.0212007985
  C         9.5815055968       -1.6713682763       10.6538831147
  C         9.5574529945       -2.1112161960        9.3873893611
  C         8.7595788868       -1.4895434838        8.3793807627
  C         7.9682897892       -0.4248732504        8.7416059470
  C         8.1129728244        0.1358260876       10.0014156699
  H         7.5804773443        1.0510949953       10.3155405389
  H         7.2728284604        0.0277827570        8.0053083296
  H         8.7760171444       -1.8143219287        7.3246427290
  H        10.2079989224       -2.9731821508        9.1091465448
  H        10.2736612464       -2.1539615688       11.3999467860
