140

  C        11.6964785173        5.8062729166        0.4908639241
  C        10.6410572003        6.5036845625        1.1423654020
  C         9.6327240467        7.0395265694        0.3203173403
  C         8.5825666241        7.8132175127        0.9605921179
  C         7.5959743963        8.4289321465        0.2609227171
  C        10.6917240515        6.8985486179        2.6172304841
  C        11.5736216540        7.9678853752        2.7767820044
  C        11.5793573046        8.7807654297        3.9629859724
  C        10.7842312005        8.3325945227        4.9484538636
  C         9.9417483979        7.1484128712        4.9167947825
  C         9.9415312402        6.4336630090        3.6483598954
  H         8.5637575845        7.7112021798        2.0523817302
  H         6.7900112776        9.0110663664        0.6964962790
  H        12.2651109016        8.1418278886        1.9807394915
  H        12.1524403905        9.7443290914        3.9023427543
  H        10.7683564106        8.8985161728        5.9131190812
  H         9.3192425110        6.9891941701        5.7290079128
  H         9.1576586891        5.7158023846        3.5901831697
  C        11.8166249906        5.8132175380       -0.9834434014
  C        12.8182740888        5.0040244165       -1.5979312527
  C        13.9614046619        4.6120214486       -0.8812705287
  C        14.0461724432        4.7698407186        0.5125611431
  C        12.8372461919        5.2139533415        1.2117532823
  C         9.6680715397        6.9960802824       -1.0889660339
  C        10.7561792452        6.4231293367       -1.7723633067
  C        10.8914139834        6.8260956373       -3.2036346594
  C        11.7422702325        8.0100059975       -3.4362852223
  C        11.8258142043        8.5385873963       -4.6953809645
  C        11.2360406510        7.8599828263       -5.7848725342
  C        10.2457724031        6.9127190852       -5.4844696074
  C        10.0723393331        6.3590364048       -4.2048329000
  H         9.3834211204        5.5772901520       -3.9779331550
  H         9.6435135173        6.4929913780       -6.3114249067
  H        11.3138465244        8.3068677362       -6.7658928348
  H        12.3590844449        9.4335372347       -4.7756299919
  H        12.2424403821        8.4648747750       -2.6567568109
  C         8.7063266352        7.7351001518       -1.8179948019
  C         7.6731740633        8.3986593043       -1.1795286402
  H         6.9582289377        8.9999940185       -1.7806986095
  H         8.5845892841        7.7829602997       -2.8535327357
  C        12.7687121399        5.0552538202        2.7166684137
  C        11.7689249913        4.0945085113        3.2404384241
  C        11.7520606871        3.8597802731        4.6042410453
  C        12.6433264524        4.4681907762        5.4617323644
  C        13.6776216269        5.2182267275        4.9944878991
  C        13.7315534598        5.5593657267        3.6843332564
  H        14.4421927649        6.3428858819        3.3414866877
  H        14.4822261221        5.4741297287        5.7083456358
  H        12.6173287829        4.1491681657        6.4556053330
  H        10.9289878326        3.1593341904        5.0154607073
  H        11.1839173581        3.5053603884        2.5518132214
  C        15.2222152202        4.4092930748        1.2207249875
  C        16.2708753419        3.8450539825        0.5352643642
  C        16.1448474732        3.5072213983       -0.8268260639
  C        14.9798024639        3.8709503820       -1.5052843330
  H        15.0220739687        3.6624903095       -2.5703870192
  H        17.0048034461        3.0179137373       -1.3319675744
  H        17.2409008112        3.6105674078        1.0065141452
  H        15.3333256496        4.6865624685        2.2424122892
  C        12.8933628830        4.6956213522       -3.1179104066
  C        12.0058087675        3.7628223257       -3.6994447346
  C        12.1232344891        3.4153010470       -5.1248419929
  C        13.0879533696        4.0212036344       -5.8569005406
  C        13.8473977503        5.0762241580       -5.3570136219
  C        13.8048117576        5.3713131075       -3.9460178467
  H        14.4269072884        6.1224922663       -3.5424514415
  H        14.4571588153        5.7193497509       -5.9960073776
  H        13.2189668202        3.7397515682       -6.9204124373
  H        11.5253579365        2.6180888042       -5.5215083261
  H        11.3148346481        3.1664272227       -3.0356325776
  C        19.0384385061        5.9631045212        0.5448600920
  C        17.9668385734        6.7209813359        1.2470898184
  C        16.8741384451        7.2537062763        0.5205831199
  C        15.8462276869        8.0519793218        1.1438010716
  C        14.8296648228        8.6187336649        0.3572600266
  C        18.0703615513        7.0883848557        2.7281904737
  C        19.0273899468        8.0032123675        3.0983763843
  C        19.2345308102        8.3993623875        4.4304531367
  C        18.2688976215        8.1166599033        5.3659541451
  C        17.2071393784        7.2377701981        4.9643987912
  C        17.1927540854        6.6640481671        3.6893011923
  H        15.7678642760        8.1223026623        2.2146708523
  H        13.9528228080        9.1653773387        0.7107984662
  H        19.6295503652        8.4082644979        2.2704707331
  H        20.0999895853        8.9925367185        4.6077990296
  H        18.3731794792        8.5735439760        6.3411122908
  H        16.4328808310        6.9825876033        5.6883389865
  H        16.4109868057        6.0464026098        3.4237323178
  C        19.0818920170        5.8687041453       -0.9209010407
  C        20.2115644994        5.3336542084       -1.5761251808
  C        21.3607331708        5.0105646089       -0.8677756055
  C        21.3403718154        5.0018122952        0.5828501066
  C        20.1541011447        5.4424455731        1.2697690334
  C        16.9321327385        7.1790773000       -0.9202221164
  C        17.9978707468        6.5389932287       -1.6130366335
  C        18.0129174048        6.8885132474       -3.0736774728
  C        18.7577769462        8.0061537122       -3.4859709172
  C        18.5588861710        8.6476216472       -4.7363971276
  C        17.8129210491        7.9590018538       -5.6741720156
  C        17.1012088904        6.8303954436       -5.2577039509
  C        17.1585740588        6.2898789480       -4.0181612136
  H        16.5464980906        5.4378399534       -3.7071202940
  H        16.4288479151        6.3710437927       -6.0251830863
  H        17.6490320368        8.3312630405       -6.6845053251
  H        19.1422411624        9.5447494707       -4.9880885559
  H        19.5282670839        8.4383261538       -2.7562402306
  C        15.8664844087        7.8196959121       -1.6351144701
  C        14.8663800238        8.4924194273       -1.0422379474
  H        14.0408832726        9.0402645252       -1.5407568793
  H        15.8549208296        7.7755849920       -2.7327603283
  C        19.9474027843        5.0151529287        2.6487218395
  C        19.1035248375        3.8654217521        2.8663151421
  C        18.7729650487        3.4118709549        4.1385722721
  C        19.3906726247        3.9249212452        5.2851996525
  C        20.3580402185        4.9168053515        5.0493584658
  C        20.5762000019        5.5563489400        3.7874474813
  H        21.2259992051        6.3581547757        3.5693027803
  H        20.9968661245        5.2517475936        5.8847586935
  H        19.1845604985        3.5826238438        6.2844326689
  H        17.9557446976        2.7176273718        4.2171828794
  H        18.6594543756        3.4070380112        1.9823577038
  C        22.4259694646        4.3494756070        1.2497933447
  C        23.5894850002        3.9277781392        0.6104016324
  C        23.6741125350        4.1236990862       -0.8323545987
  C        22.5691958963        4.5267624397       -1.4773403514
  H        22.6885436776        4.7308767076       -2.5616526846
  H        24.5578991478        3.7522116087       -1.4299133492
  H        24.3984844364        3.4614766790        1.1606545047
  H        22.4321471922        4.2791297110        2.3263001021
  C        20.0913577199        4.9160917268       -2.9562310360
  C        19.3207293568        3.8511217779       -3.4069474026
  C        19.5523410400        3.3131514735       -4.7150851498
  C        20.4579549044        3.9339910560       -5.6027178997
  C        21.0592218187        5.1179229970       -5.1867340376
  C        20.9157495146        5.5759088940       -3.8708180134
  H        21.4089104111        6.4459292327       -3.4565235729
  H        21.8270944756        5.4980373596       -5.8173124431
  H        20.6262801723        3.5099723171       -6.5649160025
  H        19.0462522540        2.3892857572       -5.0034730576
  H        18.5274227655        3.4432175592       -2.7880741507
