140

  C        11.3228646549        7.3082392086        2.1645143774
  C        10.2762298977        8.0639642952        2.8199349886
  C         9.2133507623        8.6524997338        2.1206668370
  C         8.0920536448        9.2011832190        2.8180565505
  C         6.9958646673        9.6643277626        2.1626484118
  C        10.2182444818        8.4999863438        4.3154021833
  C        10.7551997493        9.7049649528        4.7187072801
  C        10.6441901932       10.1961369032        6.0244848313
  C         9.9362581642        9.4115632704        6.9037004720
  C         9.3578427501        8.1353367205        6.5471140956
  C         9.5556958071        7.6815082615        5.2515936406
  H         8.0311885516        9.1568787205        3.9262314589
  H         6.1904964172        9.9670336135        2.7561976785
  H        11.2968031060       10.3098166337        3.9887050481
  H        11.0748497664       11.1651877486        6.3257516197
  H         9.7061888458        9.6798598645        7.9941762116
  H         8.6978984155        7.6667788530        7.1847454436
  H         9.0293058217        6.7178739338        4.9797159180
  C        11.4176785203        7.3146106345        0.6590971012
  C        12.4838241270        6.6764445844       -0.0304463908
  C        13.4847234768        6.0455694317        0.7597569186
  C        13.4564016748        5.9904837322        2.1656240864
  C        12.2695415649        6.4953441954        2.8512972890
  C         9.2499024094        8.5941091913        0.6181277340
  C        10.3283434601        8.0112584134       -0.0698431193
  C        10.3824010077        8.1824210906       -1.5774001889
  C        11.0086288380        9.3126962164       -2.1564281781
  C        10.6919324075        9.7942566782       -3.4421259207
  C         9.7323711499        9.1476421539       -4.1924266361
  C         9.0779907962        8.0325975615       -3.6531615190
  C         9.3582340558        7.4875850560       -2.3429060302
  H         8.8138396460        6.6655358756       -1.8807359744
  H         8.3028822554        7.5101445557       -4.1690320105
  H         9.5788486893        9.5128795756       -5.2342370533
  H        11.3367747691       10.5660896833       -3.8113138841
  H        11.7576514659        9.9145382794       -1.5963800602
  C         8.0537189378        9.1082958987       -0.0727929325
  C         7.0081449315        9.6426205461        0.6900156560
  H         6.1320992188       10.0785269022        0.1751325812
  H         8.0757766729        9.1884017645       -1.1349730339
  C        12.1663738639        6.1307023532        4.2932637999
  C        11.4580354349        4.9800904042        4.8279236403
  C        11.6292172293        4.6564122741        6.1890087226
  C        12.5527469211        5.2971161936        7.0014747842
  C        13.1775196270        6.4692597046        6.4655660740
  C        12.9075832239        6.9125130012        5.1918285610
  H        13.2448392340        7.8732868280        4.8756102211
  H        13.8381331618        7.0739152126        7.0865240230
  H        12.6946546481        5.0015244737        8.0593575738
  H        11.0053519090        3.9194752996        6.6629794723
  H        10.8376127586        4.4017630794        4.1692573687
  C        14.5424729866        5.3183224716        2.8513823948
  C        15.5495682498        4.7277546435        2.1264140760
  C        15.6524160860        4.8990334660        0.6966044466
  C        14.6373517071        5.5232688282        0.0848436698
  H        14.5560577625        5.6668616676       -0.9876914854
  H        16.5685204307        4.5996674472        0.2146888409
  H        16.3133302046        4.1181516600        2.5884899175
  H        14.5243455196        5.0571593147        3.9327789654
  C        12.5598896259        6.5342201488       -1.5352428972
  C        11.7572091897        5.5244911483       -2.0605284513
  C        11.7285624258        5.0575804556       -3.4161255008
  C        12.4818617494        5.7576877477       -4.3316633480
  C        13.3504132992        6.7940356208       -3.9051963016
  C        13.3952285824        7.2068349869       -2.4967770585
  H        14.1559658777        7.9037928102       -2.1950813248
  H        14.0543832555        7.2190392876       -4.6567781795
  H        12.4628315667        5.5036353449       -5.4506618630
  H        11.1013702698        4.1875957191       -3.5734521578
  H        11.1979979362        4.9153059793       -1.3171099253
  C        18.5606782943        7.2783752855        1.9631437758
  C        17.5446070247        8.0383792180        2.6292556033
  C        16.4213214933        8.5565835881        1.9108685868
  C        15.2934203857        9.2295303693        2.6341023299
  C        14.2855662596        9.7661684679        1.8479170794
  C        17.6028855193        8.4006415337        4.0959282263
  C        18.2811302040        9.5789922111        4.5466982422
  C        18.1818541166       10.1200512616        5.8899312652
  C        17.3391452582        9.4720053459        6.7889021983
  C        16.6647549943        8.3124903382        6.2965874384
  C        16.7867066470        7.7291700738        5.0144280306
  H        15.3316675646        9.1609810971        3.7263979060
  H        13.4673775215       10.1496458591        2.3852604413
  H        18.9143546588       10.1819762721        3.9217549242
  H        18.6989257420       11.0511359520        6.0424978299
  H        17.2018425798        9.8256065448        7.8216959699
  H        15.9054084473        7.9003464090        6.9435197889
  H        16.1928819039        6.8801994070        4.7336366501
  C        18.6093680886        7.2348388566        0.4855417070
  C        19.5651823620        6.4427780479       -0.2180463543
  C        20.5565666681        5.7478781049        0.5516733164
  C        20.4368328956        5.7471723657        1.9993748094
  C        19.4117148928        6.4582627086        2.6515412204
  C        16.5173162085        8.5625662966        0.4582752879
  C        17.6246028102        8.0513023441       -0.2009983736
  C        17.5554744683        8.3040642894       -1.6556127334
  C        18.1487532011        9.5267732409       -2.2627877621
  C        18.0615849330        9.8115578928       -3.6346187692
  C        17.3604360325        8.8719670592       -4.4290121866
  C        16.7544565170        7.6869396910       -3.8612995698
  C        16.7898433372        7.4509004303       -2.4343205126
  H        16.1992264805        6.6677224790       -1.9677770768
  H        16.2579022485        7.0579410264       -4.5553650216
  H        17.2302185243        9.0644602449       -5.5166771647
  H        18.3719627362       10.7193834913       -4.0548003541
  H        18.6864832770       10.1940907465       -1.6206647094
  C        15.3945945102        9.1937818582       -0.2597465918
  C        14.3357077976        9.7830248993        0.4342244714
  H        13.6034558984       10.4110780313       -0.0933215578
  H        15.2968300919        9.2246065774       -1.2955196662
  C        19.3547670238        6.1637170385        4.1238874558
  C        18.6062853197        5.0803682481        4.6225089406
  C        18.6682338662        4.6389598554        5.9927361738
  C        19.6105952309        5.2723300619        6.8266130429
  C        20.1855739089        6.4601138308        6.4313109026
  C        19.9653253929        6.9498594488        5.1545977019
  H        20.3696785414        7.9102262329        4.7807909836
  H        20.9161318159        6.9926242854        7.0440709954
  H        19.8848198635        4.8563764922        7.7725214642
  H        18.0066330965        3.8324256670        6.2761019885
  H        17.9772177253        4.5675020471        3.9033622048
  C        21.5113662286        5.1137022630        2.7096170019
  C        22.5798452007        4.4621718233        2.0681221717
  C        22.6903374736        4.5456378368        0.6874585392
  C        21.7230001650        5.1744807054       -0.0638767014
  H        21.8962136428        5.2907349841       -1.1098869361
  H        23.6030205729        4.2704296164        0.2611320560
  H        23.4234539590        4.2286364147        2.7336750025
  H        21.4687183086        5.2109578890        3.8023757229
  C        19.6133438619        6.2123814548       -1.7507099156
  C        18.7385383080        5.1772680346       -2.1751143043
  C        18.8495029450        4.6667310503       -3.4204911045
  C        19.7706528027        5.2078968503       -4.3631916034
  C        20.5266437983        6.3526410627       -3.9690560594
  C        20.4648840598        6.8149647870       -2.6584476962
  H        21.1242497406        7.5961312224       -2.2183292847
  H        21.1661504412        6.8403042171       -4.6898583521
  H        19.9947252983        4.6179517139       -5.2303557819
  H        18.1924917423        3.8424585536       -3.6542086399
  H        18.0110876932        4.7560379165       -1.4339391493
