140

  C        12.0895714230        7.2192376930        2.3808373521
  C        11.0939646505        8.0241361398        3.0168309063
  C        10.1062575952        8.6528916881        2.2102585069
  C         9.0646339217        9.3743081312        2.8145275385
  C         8.0739707388        9.9390831236        2.0584949006
  C        11.0755741450        8.4162284900        4.4059567647
  C        11.8192378011        9.5102867940        4.8608746481
  C        11.7836269482        9.8515597988        6.2284409599
  C        10.9549620286        9.0757471414        7.1250665347
  C        10.2793053811        7.9895432908        6.7014827473
  C        10.4357116458        7.6133360501        5.3508032465
  H         8.9516465149        9.3058568506        3.8730859001
  H         7.2560207975       10.4723357277        2.5628401763
  H        12.3924692083       10.1906126341        4.1594734039
  H        12.5108795571       10.6651526511        6.5862770794
  H        11.0245879772        9.2523299495        8.1812752918
  H         9.7301254801        7.3229743122        7.3678812299
  H         9.9097298213        6.7162502836        4.9690964066
  C        12.2063079132        7.1512025879        0.9196146671
  C        13.2469451479        6.4233388839        0.3182928861
  C        14.3253627674        5.8375419640        1.0940307326
  C        14.1553098910        5.8670908271        2.5269548162
  C        13.0006185168        6.4248285463        3.1273636832
  C        10.1783948608        8.5278422245        0.7923681601
  C        11.2811726822        7.8399931794        0.1689046774
  C        11.4488308011        8.2473136683       -1.2536887011
  C        12.2910685109        9.3085397806       -1.6056415720
  C        12.1329865503        9.8850556394       -2.8736261672
  C        11.2418718712        9.4300829560       -3.8401684793
  C        10.5446970873        8.2783992384       -3.4692144551
  C        10.6169163231        7.7157433804       -2.2400963660
  H        10.0485376632        6.8423387887       -2.0445763551
  H         9.9215151347        7.7396245628       -4.2035157994
  H        11.1536453012        9.9488730758       -4.8295477544
  H        12.6954516798       10.7687961976       -3.2161515022
  H        12.9411850093        9.7010121880       -0.8591091338
  C         9.1722730994        9.2710598330        0.0455217606
  C         8.1263395956        9.9029033795        0.6381017827
  H         7.3923126467       10.5027507086        0.1601885728
  H         9.2509512955        9.2646124313       -1.0679768619
  C        12.8928420341        6.0915922078        4.5249172019
  C        12.1817803409        5.0130000095        4.9775351154
  C        12.3041207668        4.4637707020        6.2652099320
  C        13.2199288180        5.0626282781        7.1273866264
  C        13.9238860926        6.1795454519        6.7374538734
  C        13.7563634336        6.6475865327        5.4473548303
  H        14.2840557198        7.5064571566        5.1336645482
  H        14.4923950690        6.7628287179        7.4272857463
  H        13.3821288047        4.6455642308        8.1314054370
  H        11.7398777339        3.5555025795        6.4260851412
  H        11.5292370985        4.4333935619        4.3236289054
  C        15.2943033005        5.2960514501        3.2932279987
  C        16.3297722963        4.6437702303        2.6621325723
  C        16.4117063321        4.6659537761        1.2447996390
  C        15.4679193053        5.2374907166        0.4614500888
  H        15.3911486315        5.1618284382       -0.6115204411
  H        17.2301693825        4.1594419129        0.7203957092
  H        17.1044766934        4.2624141120        3.2984295556
  H        15.1314653903        5.1322196720        4.3459974273
  C        13.1302849869        6.0633422307       -1.2090966714
  C        12.1187257981        5.2041580277       -1.5711352330
  C        11.9124489361        4.8169236825       -2.8619510130
  C        12.7295795334        5.3465926307       -3.9165082904
  C        13.7231281977        6.2754419886       -3.5678256051
  C        13.9834164527        6.5292048413       -2.2475340123
  H        14.7913112677        7.2334757111       -2.0611613992
  H        14.4668939687        6.5974305521       -4.2969274663
  H        12.5867999480        5.0223081968       -4.9468930772
  H        11.2367229782        3.9951924062       -3.0690203517
  H        11.5348594486        4.5685728893       -0.8594305471
  C        19.1399761112        7.2153018453        2.5067394105
  C        18.0826543033        7.9113712780        3.1763991822
  C        17.0180374367        8.5081999984        2.3926475757
  C        15.9735240164        9.2329363494        3.0665370421
  C        14.9770031792        9.8277091239        2.3553187725
  C        18.0659375380        8.1848548411        4.6400708755
  C        18.9787426830        9.0827988929        5.1726460941
  C        18.9745700038        9.4320220729        6.5362770738
  C        18.0551564646        8.7696921078        7.4274452588
  C        17.1360115269        7.7659785396        6.9328600938
  C        17.1606577075        7.5503207075        5.5260014523
  H        16.0960517797        9.3388749623        4.1492552556
  H        14.2218966816       10.4772617850        2.8882271470
  H        19.8117718353        9.5840334085        4.6514503591
  H        19.7957088274       10.0480556205        6.9362839309
  H        18.0800577556        8.8396121502        8.5224808531
  H        16.3542726748        7.1736092324        7.4973515527
  H        16.5932640134        6.7721456471        5.1128137746
  C        19.2064361025        7.3415246605        0.9987202928
  C        20.3025592156        6.6106134547        0.4382200962
  C        21.3266518363        6.0373034271        1.1982977510
  C        21.1957025788        5.8835660593        2.6621493316
  C        20.1068549279        6.5199536878        3.2928771407
  C        17.0380526386        8.5124356109        0.9479513614
  C        18.1693121690        8.0471787644        0.2673190119
  C        18.2246520048        8.5277982500       -1.1404365775
  C        19.0351404983        9.6115922471       -1.4391864192
  C        19.0602352144       10.1423904215       -2.7447783613
  C        18.2693716680        9.6499586928       -3.7725338302
  C        17.4749082896        8.5438929651       -3.5094964970
  C        17.4498972026        8.0376523253       -2.1920934130
  H        16.7407710686        7.2727940915       -1.8360382045
  H        16.7433837242        8.2111258276       -4.2320544379
  H        18.2754314036       10.1669476179       -4.7636782038
  H        19.7576803964       10.9330350213       -2.9950126574
  H        19.6736715025       10.0081280741       -0.6939979581
  C        15.9571095621        9.1826605686        0.2858531823
  C        14.9494160117        9.7381644387        0.9367116608
  H        14.1214481655       10.2903970741        0.4754590079
  H        15.9656087466        9.2956972808       -0.7691023378
  C        20.0448683694        6.2816630329        4.8543309577
  C        19.1966720948        5.1823872266        5.2751228069
  C        19.2829472102        4.6033730683        6.6218404179
  C        20.4113869586        5.0372884304        7.4162526927
  C        21.2417172957        6.1016532112        6.9545049404
  C        20.9403255157        6.7030155519        5.7804203033
  H        21.6616004415        7.5102754812        5.5511222849
  H        22.0681503630        6.5620584674        7.5098462080
  H        20.5682995589        4.6852470064        8.4496114229
  H        18.6851785550        3.7389933391        6.9421409167
  H        18.4393970422        4.8260078403        4.5448678698
  C        22.2344139370        5.1282172133        3.3039763035
  C        23.3593513399        4.6982135619        2.6571898071
  C        23.5456564638        4.9639061150        1.3100374199
  C        22.5372738882        5.5425227262        0.5500768458
  H        22.7270461533        5.5642198468       -0.4941965767
  H        24.4908451479        4.6970709587        0.8472768998
  H        24.0546259832        4.0118518028        3.1358600954
  H        22.0847501107        4.7343566543        4.3103130669
  C        20.2001728233        6.2598205414       -1.0119373878
  C        19.2940847005        5.2855693098       -1.3786736827
  C        19.2369512763        4.6920948073       -2.6793416469
  C        20.1705132600        5.1704194564       -3.6408953452
  C        21.0317766812        6.1907521934       -3.2851968012
  C        21.1135680910        6.7059578644       -1.9943815421
  H        21.8995469268        7.4467673007       -1.7748285988
  H        21.6525860933        6.6874219648       -4.0074301744
  H        20.1848020062        4.8274001804       -4.6548784786
  H        18.5763217216        3.8412747583       -2.9967441352
  H        18.5627590705        4.9500087505       -0.6090178400
