140

  C         5.5258028877       -0.5518699733       16.2150112732
  C         6.5264527974        0.2750749729       16.8835214926
  C         7.6067668768        0.8643464485       16.1618355205
  C         8.6719581597        1.5907330913       16.7288655566
  C         9.8117931292        1.7964020155       16.0185334225
  C         6.4867817180        0.6590641039       18.3592132595
  C         5.7515831434        1.7744116606       18.8057357479
  C         6.0465290323        2.2698019568       20.0540108752
  C         6.7866043216        1.5403813595       21.0394259332
  C         7.4446595746        0.3980205872       20.6149685350
  C         7.3959263564        0.0868040407       19.2399718148
  H         8.7224452739        1.8506224249       17.7844315104
  H        10.7301039787        2.0825754364       16.6434607263
  H         5.2708660870        2.3936058081       17.9970462512
  H         5.4510767653        3.0970617453       20.3620463019
  H         6.8846054382        2.0190975401       21.9694076889
  H         8.0522192283       -0.2117876717       21.2626296816
  H         8.1063258607       -0.6464065553       18.8553401648
  C         5.5165833922       -0.5313373505       14.7339421727
  C         4.6005035005       -1.3824404696       14.0212324629
  C         3.4335772715       -1.8469433513       14.6785055101
  C         3.4857037808       -1.9517654325       16.1662943091
  C         4.5714960077       -1.3773505971       16.9337677240
  C         7.6317556371        0.7266668767       14.6881613919
  C         6.4428022856        0.2369577593       14.0252495612
  C         6.3310275974        0.6178715042       12.5006635028
  C         5.5863288533        1.7222521684       12.1346485405
  C         5.4466780387        2.1182415704       10.7813545583
  C         6.2919140402        1.5232365589        9.8291213721
  C         7.0871795690        0.4598516871       10.2299738194
  C         7.1187303420       -0.0765572317       11.4872310700
  H         7.6567475544       -0.9931241853       11.7896533497
  H         7.7018658403        0.0362632719        9.3811172363
  H         6.3550285803        1.9004159149        8.7946262352
  H         4.9452008608        3.0583760826       10.5962799832
  H         5.0562802397        2.3671627855       12.8544103919
  C         8.8408370541        1.1048218329       13.9998401846
  C         9.9659088867        1.4496200547       14.6773665320
  H        10.9585513039        1.5586540512       14.2719877576
  H         8.8753930721        0.9532096291       12.9303570030
  C         4.7770990837       -1.6094083192       18.3811379959
  C         5.7917037117       -2.4733852247       18.8440488121
  C         5.8687732242       -2.8657379002       20.1901076738
  C         4.8628211960       -2.3785109088       21.0867861821
  C         3.8135244325       -1.5796228799       20.6161865345
  C         3.7713324434       -1.2243051762       19.2983158567
  H         2.9040700245       -0.7195541636       18.9590880277
  H         3.0214864714       -1.2436376116       21.3272672514
  H         4.8782504988       -2.6169870018       22.1478489375
  H         6.5905480679       -3.6291281564       20.5134328943
  H         6.6131464922       -2.7217108334       18.1330387327
  C         2.4268028338       -2.6339445644       16.8023566746
  C         1.3436602606       -3.1353220901       16.0887166835
  C         1.2492467789       -2.8623402605       14.6887142784
  C         2.2732006931       -2.2940419332       13.9743928704
  H         2.1370903931       -2.0820445592       12.9181978020
  H         0.3431366999       -3.2284015480       14.1602940986
  H         0.6019495653       -3.7435456299       16.5225433771
  H         2.4689906593       -2.7360248505       17.8695973944
  C         4.7176129698       -1.7642337584       12.5448193885
  C         5.6487718333       -2.6880856582       12.0186993566
  C         5.6171323488       -3.0872564860       10.6363953199
  C         4.7383598297       -2.3823947577        9.7880364526
  C         3.8118284228       -1.4713163228       10.2991792827
  C         3.7803394961       -1.1382503424       11.6812072553
  H         3.1253659390       -0.3548322703       12.0903164598
  H         3.3016453187       -0.8821185510        9.5907656422
  H         4.7970248114       -2.7197932385        8.7960497862
  H         6.2678127933       -3.8857450660       10.1550983989
  H         6.4594477325       -3.0995564555       12.6086364150
  C        12.8966358923       -0.5527569648       16.1988758370
  C        13.8290247961        0.4140813143       16.7377224801
  C        14.9223175233        1.0009319870       16.1026699286
  C        15.8455435018        1.9348425936       16.7374851229
  C        16.8124181487        2.5278138287       16.0391132840
  C        13.7798020338        0.7357287374       18.2368138608
  C        12.7290941914        1.5808455291       18.7368169118
  C        12.8478403895        2.1372134283       19.9942363346
  C        13.7476950643        1.7027346606       20.9389131526
  C        14.6141986557        0.6172790020       20.5928896731
  C        14.6290810230        0.1871013069       19.2330491226
  H        15.8149173932        2.0811743372       17.8033527947
  H        17.5419804271        3.1893843459       16.5544198703
  H        12.0932070292        2.0413884692       17.9803755817
  H        12.1990313249        2.9332489878       20.2502073688
  H        13.8559902629        2.1555429520       21.9163509312
  H        15.2843822123        0.2310841223       21.3266288758
  H        15.3109485124       -0.5782650252       18.8702944509
  C        12.8793163737       -0.5847669361       14.6979196515
  C        11.9449584016       -1.4728227649       13.9935184326
  C        10.7605398304       -1.9126442803       14.6672322216
  C        10.7325951187       -1.7661319427       16.1587953357
  C        11.8544481735       -1.2009119474       16.8784420037
  C        14.9263417663        0.8166602951       14.6540955061
  C        13.8878311974        0.1725465066       14.0052215925
  C        13.8631162926        0.4878555394       12.5421869264
  C        13.0878036706        1.5479038274       12.0915689750
  C        13.0579314637        1.9516247653       10.7249117732
  C        13.9193127340        1.3051175861        9.8541295819
  C        14.8583298985        0.2925768727       10.2594853771
  C        14.7128331208       -0.1083451128       11.5846461629
  H        15.1822070023       -0.9958455992       12.0164798994
  H        15.5627440519       -0.1255347735        9.4981207578
  H        13.8429669298        1.5806777931        8.7988953122
  H        12.3440091650        2.6809087743       10.3321569044
  H        12.4483690566        2.0795166580       12.7976586362
  C        16.0366368868        1.4767314923       13.9759287817
  C        16.9347251751        2.2751508847       14.6851901609
  H        17.7668439801        2.8061648380       14.2069724596
  H        16.1291252436        1.5135036377       12.9346360857
  C        11.8777642645       -1.5664598791       18.2902514634
  C        12.7444842623       -2.5731098440       18.7388401654
  C        12.7346512918       -2.9427187643       20.1182325950
  C        11.8741850622       -2.3366492341       21.0053567887
  C        11.0626332312       -1.2199428838       20.5541885431
  C        11.0925031254       -0.8597391809       19.2370561744
  H        10.3929017837       -0.1197885675       18.8864522944
  H        10.3092388120       -0.7293273225       21.2173197288
  H        11.8045709460       -2.6576965605       22.0757853843
  H        13.4205264551       -3.7006307236       20.4673564010
  H        13.3129672128       -3.1197983853       17.9646942898
  C         9.5934902574       -2.1905577064       16.8598414394
  C         8.5709290591       -2.7382957144       16.1619316546
  C         8.5457323748       -2.9338468540       14.7176798495
  C         9.7076974656       -2.6031623025       14.0492484212
  H         9.6361639213       -2.7668306982       12.9596593004
  H         7.8345165862       -3.6505154773       14.3000152834
  H         7.6391980283       -3.0472288711       16.7101936247
  H         9.6076320933       -2.2723539747       17.9346902993
  C        11.9413271155       -1.6783270768       12.4937918482
  C        12.8394443228       -2.5828052443       11.8288544521
  C        12.5695704208       -3.0580561878       10.5518579560
  C        11.5495104110       -2.5287535859        9.7602434507
  C        10.6909694722       -1.5435163629       10.3125265654
  C        10.9041860950       -1.1649253413       11.6909670133
  H        10.2747191252       -0.3771835005       12.1423311400
  H         9.8578999431       -1.0412280617        9.7928782424
  H        11.3451205028       -2.9284317269        8.7834693870
  H        13.2872398708       -3.7691120055       10.1000306072
  H        13.6534478316       -3.0044307690       12.3808914512
