140

  C         3.4975942520        0.3022100223       14.5448601763
  C         4.5499736552        0.9686354835       15.3035160011
  C         5.7481911308        1.4316969713       14.6201462911
  C         6.8346400890        2.0418275895       15.4198515259
  C         7.8514817870        2.6703537956       14.6999294634
  C         4.4211110140        1.3601949592       16.7124997113
  C         3.5419069088        2.4519790472       16.9456145862
  C         3.3168342595        2.9413020528       18.2972051696
  C         4.0638086031        2.3859205280       19.3265208820
  C         4.9354938752        1.2874684549       19.1189400687
  C         5.2041778080        0.8633931560       17.8166373391
  H         6.8455432179        2.1133221659       16.4989578984
  H         8.5949500170        3.1788453654       15.2949590348
  H         2.9661563614        2.8609625384       16.1231808935
  H         2.6803551038        3.7748540255       18.4460275828
  H         3.7890757420        2.8036964770       20.3081835258
  H         5.4765517047        0.9533944036       20.0225384322
  H         5.7293065436       -0.0732533443       17.5742589449
  C         3.5322343149        0.3636222730       13.0758123657
  C         2.5215769033       -0.3723485618       12.4154468441
  C         1.3320438279       -0.8456549187       13.0042232167
  C         1.2491379526       -0.8583357199       14.4190067391
  C         2.3388482457       -0.3354636004       15.1150108330
  C         5.7532531391        1.4989849811       13.2158044625
  C         4.6887661931        0.9576408419       12.4425071266
  C         4.6909663124        1.1944857801       10.9933726081
  C         3.7999229385        2.2207912983       10.5462782829
  C         3.9391737802        2.6303891144        9.2225018819
  C         4.9998993076        2.2225729289        8.3928219469
  C         5.7354089839        1.1030784630        8.8048765793
  C         5.5691722824        0.5501613754       10.0600010888
  H         6.1899120493       -0.3065123905       10.3889611783
  H         6.5175546125        0.6642482996        8.2198004038
  H         5.0780737764        2.4808986736        7.3293643063
  H         3.2503803704        3.4115860028        8.8913247466
  H         3.2515381612        2.6076351008       11.3592435103
  C         6.8898560956        2.1154949732       12.5654741276
  C         7.8899922838        2.6749888455       13.2684412197
  H         8.8570324218        3.0078007860       12.8693966650
  H         6.9733383428        2.1213816372       11.4944332882
  C         2.4066395980       -0.6256251390       16.5730275977
  C         3.3020289929       -1.6196168400       16.9951543959
  C         3.3036563113       -2.0632549733       18.3717877494
  C         2.4689437840       -1.4712041980       19.2934721632
  C         1.6605835499       -0.3727785833       18.8899805146
  C         1.5972119709        0.0055050508       17.5405503002
  H         0.8279648813        0.7733530444       17.2855341642
  H         1.0264300043        0.0476298637       19.6303748827
  H         2.3753955926       -1.7921621548       20.3557523144
  H         4.0494384221       -2.8277864948       18.6420807221
  H         4.0621006218       -1.9304361642       16.2731877985
  C         0.2649827495       -1.6809885845       15.0161793701
  C        -0.7499125025       -2.2966988185       14.2691406805
  C        -0.8127495865       -2.1289265612       12.8459151060
  C         0.2778096645       -1.4546576300       12.2500588219
  H         0.4279098132       -1.3289900666       11.1733904121
  H        -1.5610889233       -2.6317307881       12.3334604497
  H        -1.4511576608       -2.8626974034       14.8771382278
  H         0.2304766746       -1.7451397003       16.1480294405
  C         2.6992045183       -0.8985218799       11.0497198720
  C         3.3760882246       -2.1252781600       10.8452334324
  C         3.6261264048       -2.6521602301        9.5542899103
  C         3.1200445703       -1.9222714550        8.4394845557
  C         2.4456413995       -0.7441960343        8.6005305765
  C         2.1823068942       -0.2302369990        9.8917948954
  H         1.5066514852        0.6028832554       10.0492229652
  H         1.9369997073       -0.2785451448        7.6922073060
  H         3.3182328583       -2.3512276923        7.4571891995
  H         4.2156318931       -3.6352598317        9.3720289749
  H         3.6599416964       -2.5898837058       11.8334810779
  C        10.6752448971       -0.1391985461       14.6307156556
  C        11.6477999160        0.6284592802       15.3612202873
  C        12.7817921817        1.2071966686       14.7446406285
  C        13.8052014579        1.7990984230       15.5605749686
  C        14.7881471724        2.4828039280       14.9408003897
  C        11.5461502310        0.8832481180       16.8098038617
  C        10.9701964198        2.0749159011       17.1244195270
  C        11.1442230507        2.6234807475       18.3791914727
  C        11.9451032324        1.9460853890       19.3513694643
  C        12.4574637326        0.6748218922       19.0613966878
  C        12.2938363506        0.1884992191       17.7836515907
  H        13.7908366792        1.7357137492       16.6116578495
  H        15.5989197360        2.8758636968       15.5014900077
  H        10.4068567995        2.6350256758       16.3632184869
  H        10.7237563387        3.5505479632       18.6759698855
  H        12.1833085154        2.4895052025       20.2947345877
  H        13.1907079036        0.3007112203       19.7499696035
  H        12.7448746708       -0.7949051068       17.5879740541
  C        10.6684489742        0.0835801026       13.1505760176
  C         9.6133155480       -0.4670789421       12.4085942670
  C         8.5740626583       -1.2556301181       12.9914431610
  C         8.5116874280       -1.3613135313       14.4503575355
  C         9.6179324417       -0.8205557007       15.2248071682
  C        12.8080184531        1.2904609633       13.2322543166
  C        11.7098893658        0.8633805789       12.5342826575
  C        11.7840925667        1.2408041403       11.0952885558
  C        11.2566063711        2.5515374488       10.6977697222
  C        11.1728948885        2.8794590016        9.3714578489
  C        11.8116915918        2.0785317783        8.3915306919
  C        12.4476724358        0.8607762973        8.7554260138
  C        12.4488075309        0.4699855044       10.1141752820
  H        12.8977357350       -0.4411484814       10.4580735983
  H        13.1470747068        0.4362713110        8.0709657719
  H        11.8682295057        2.3970341831        7.3520305239
  H        10.7740470796        3.8962660884        9.0457185323
  H        10.7413952053        3.1960325424       11.3981048825
  C        13.9021205909        2.0505176230       12.6824940711
  C        14.8883410363        2.5433399558       13.5256447573
  H        15.7120418221        3.1215443275       13.1263107080
  H        13.8246904012        2.3315454863       11.6467696984
  C         9.4891646164       -1.1125785410       16.6912791895
  C        10.1342152396       -2.1797566739       17.2629934385
  C         9.8684116532       -2.6030025356       18.5544519912
  C         8.9756701519       -1.8968538068       19.3294006666
  C         8.3575946128       -0.7610169071       18.7818866832
  C         8.5807158151       -0.3395842418       17.4825710168
  H         8.0771873546        0.5439809519       17.0925125821
  H         7.7125170631       -0.1678769241       19.4485986548
  H         8.7061233487       -2.2824035249       20.3474307221
  H        10.3837696538       -3.4929262480       18.9190018152
  H        10.8642791715       -2.7540616185       16.6867918926
  C         7.3843991825       -2.0635216873       14.9716614693
  C         6.4860373501       -2.8033131357       14.2862620351
  C         6.5835017760       -2.7975759542       12.8817361758
  C         7.5969833546       -2.0572949594       12.2425363808
  H         7.6733015281       -2.0781901513       11.1739384495
  H         6.0467930486       -3.5123742842       12.2666946263
  H         5.6798891163       -3.2685946481       14.8029162280
  H         7.1893432164       -2.0398130304       16.0832857924
  C         9.7180822127       -0.6933096265       10.9375641936
  C        10.4131054371       -1.8395720486       10.5344593943
  C        10.4727249093       -2.2941625669        9.2281743380
  C         9.7510832960       -1.6186941459        8.2541116568
  C         8.8920840105       -0.6070267645        8.6275889016
  C         8.9140224276       -0.1038062017        9.9290285579
  H         8.4063578931        0.7920425201       10.2095831607
  H         8.4003884717       -0.0355767663        7.8301592950
  H         9.7413790088       -1.9860016037        7.2351702941
  H        10.9867462139       -3.2238205164        8.9418261848
  H        10.9255061531       -2.4786905755       11.2404777795
