140

  C         4.1556436708        0.1630829035       15.3080057581
  C         5.0357997269        1.0700927330       16.0088797760
  C         6.1905706759        1.5831594656       15.3863093769
  C         7.3017222223        2.2237105190       15.9987999354
  C         8.3601906732        2.7574809840       15.2994451429
  C         4.9126719167        1.3829150381       17.5056933013
  C         3.9610828170        2.3452835341       17.9962490836
  C         4.0264673180        2.7400283426       19.3539511393
  C         4.8985573637        2.1186850902       20.2522712850
  C         5.7463147008        1.0884661042       19.8476976107
  C         5.7111950368        0.8023627631       18.4462005825
  H         7.3349389976        2.3288540003       17.1021206757
  H         9.0513669779        3.3583760236       15.9059945151
  H         3.3998635797        2.9335912392       17.2910630984
  H         3.4106296784        3.5225244384       19.7436227505
  H         4.8411907634        2.5138667438       21.2689111159
  H         6.3628335534        0.4318637731       20.5248314812
  H         6.4514767718        0.1074180194       18.0797065457
  C         4.2478112726        0.0921222224       13.7853717788
  C         3.1889341912       -0.6155271794       13.1408577644
  C         2.1273750018       -1.1757217056       13.8814800066
  C         2.0930079311       -1.2312546030       15.3451969418
  C         3.1864500727       -0.6010629998       16.0135436189
  C         6.2526079863        1.4920067368       13.9461613805
  C         5.2359950677        0.9286681732       13.1500163702
  C         5.1216481859        1.2980415386       11.6847323122
  C         4.1531607522        2.2350571515       11.3550745622
  C         4.0591253998        2.6898074791       10.0588189157
  C         4.9672415438        2.2138393154        9.0683603475
  C         5.9025343939        1.1842449417        9.3601567779
  C         5.9356447689        0.7346025521       10.6974521685
  H         6.5453752723       -0.1399167880       10.9472390963
  H         6.7299027727        0.8765867836        8.6659896098
  H         4.9768617099        2.7108327328        8.0827144200
  H         3.3095909428        3.4864271788        9.8276017629
  H         3.4645436675        2.5728681000       12.0902830767
  C         7.3907738349        2.1336251358       13.2803460934
  C         8.3698838623        2.8354536681       13.9006009195
  H         9.1440421499        3.4701999974       13.4849888916
  H         7.3686749967        2.2278622729       12.1807346668
  C         3.3402065260       -0.9548526525       17.4651615276
  C         4.1381421074       -2.0370039132       17.7039286071
  C         4.1939246299       -2.6884171430       18.9655238550
  C         3.3769873249       -2.2127165959       20.0165515174
  C         2.4946031920       -1.1091986479       19.7766371622
  C         2.5863142386       -0.4345853248       18.5238534249
  H         1.8427677959        0.3545238363       18.2972241727
  H         1.7854622385       -0.8203424989       20.5221822469
  H         3.5304017560       -2.6947936083       21.0316170874
  H         4.8332103353       -3.5576384707       19.0147834392
  H         4.6476432442       -2.4320720247       16.8558080208
  C         1.0925123525       -1.9977891678       15.9403009225
  C         0.0838340853       -2.5649593282       15.2431193844
  C         0.0524470781       -2.4342003728       13.8188033243
  C         1.0230870215       -1.7430913569       13.1895308618
  H         0.8508800900       -1.5822011485       12.1577398921
  H        -0.7137343964       -2.7457397368       13.1333182663
  H        -0.7449221132       -2.9987376303       15.7416257290
  H         0.9595410631       -1.9342561408       17.0099609337
  C         3.2957237981       -1.0969267246       11.7599883934
  C         4.2576709728       -2.0741443022       11.5186449271
  C         4.4233323144       -2.6639054059       10.2353850413
  C         3.6423944824       -2.1264321799        9.2003037330
  C         2.6603484001       -1.1607035880        9.4064378640
  C         2.5024749836       -0.6091433137       10.6933615796
  H         1.7174059743        0.1213059965       10.8596818280
  H         2.0042666855       -0.9587959052        8.5879124468
  H         3.8034315955       -2.6007549451        8.2980265834
  H         5.1839659590       -3.3812069410        9.9578078521
  H         4.8448591142       -2.4710771869       12.2890458424
  C        11.5562358800       -0.2323632858       15.3369762800
  C        12.5445345350        0.6177974837       16.0488388879
  C        13.6306066650        1.1258710570       15.2929880443
  C        14.7470907242        1.7545669262       16.0030483705
  C        15.7736090657        2.3657344515       15.2937545047
  C        12.3936476873        1.0499325750       17.4651563172
  C        11.5757241962        2.0497841508       17.9088268145
  C        11.5954402494        2.4581615364       19.1997717890
  C        12.4607713881        1.8472227620       20.1224096197
  C        13.2884992219        0.7980799403       19.6998366689
  C        13.2168663322        0.3796003502       18.3624480860
  H        14.7516613340        1.8084167026       17.0667906995
  H        16.5197686328        2.9429933586       15.7876380511
  H        10.8240170763        2.5797238113       17.2954966744
  H        10.9566831407        3.3216348558       19.5513978419
  H        12.6153693149        2.2931873468       21.1216994041
  H        13.9688945173        0.3380604429       20.4022206320
  H        13.9333728268       -0.3755552474       18.0088250551
  C        11.4662764537       -0.1322602618       13.8594927956
  C        10.4011958305       -0.9301009141       13.1797078167
  C         9.2932505775       -1.4185133130       13.9064599927
  C         9.2320301531       -1.3493218704       15.3874196499
  C        10.4729685207       -0.8694459986       16.0579020200
  C        13.5904094401        1.1285801857       13.8176415235
  C        12.4545002470        0.5336687442       13.1843387344
  C        12.3225341303        1.0070862988       11.7368570745
  C        11.3797203601        1.9067529442       11.3142442815
  C        11.3627700647        2.4290080214        9.9877952521
  C        12.2807528829        1.9839094765        9.0077929067
  C        13.2338025993        1.0375075762        9.4985676662
  C        13.2074693926        0.4681440755       10.7619410176
  H        13.8686697465       -0.3398362254       11.0183188455
  H        13.9526054875        0.6898086933        8.7148908907
  H        12.3913494567        2.2601787100        7.9744739386
  H        10.6111982217        3.2024739553        9.7669846007
  H        10.7416401754        2.3465514118       12.0752412096
  C        14.6353878840        1.8744831555       13.1588310885
  C        15.6568931859        2.4178021759       13.8900993269
  H        16.3516230370        3.0237465274       13.3023412330
  H        14.6142936358        1.9824963943       12.0344066394
  C        10.4972751397       -1.0780505989       17.5171826588
  C        11.2390439706       -2.1828712384       18.0016270048
  C        11.3411498162       -2.4424745217       19.3798442620
  C        10.4377888235       -1.8433276828       20.2795423784
  C         9.5735364246       -0.8760599339       19.7733984897
  C         9.6114245360       -0.4434829698       18.4064276559
  H         8.8399208486        0.2541939422       18.1215696108
  H         8.8070952972       -0.4805975772       20.4696880740
  H        10.4562794089       -2.0879249527       21.3202782082
  H        12.0084901261       -3.1680979083       19.8081894616
  H        11.9651339448       -2.6423102282       17.3168566401
  C         8.1627312967       -1.9824781297       16.1168897867
  C         7.1985901156       -2.6389392729       15.4558854355
  C         7.2131697179       -2.6620547138       14.0012543722
  C         8.2000311239       -2.1017894982       13.2823859921
  H         8.1527410377       -2.2313214465       12.2216283350
  H         6.5505097294       -3.3222816649       13.4516200893
  H         6.4628753459       -3.3131067274       15.9061974363
  H         8.1483698522       -1.9000167284       17.2264170203
  C        10.3682656735       -1.1096150135       11.7160336131
  C        11.2501848997       -2.0338754336       11.0560783284
  C        11.0565385614       -2.4418162862        9.7411430692
  C         9.9755313241       -1.9431664728        8.9949559290
  C         9.2437479515       -0.8487582755        9.5426336614
  C         9.3726069625       -0.5345185399       10.9027350864
  H         8.6608610175        0.1755886661       11.2952413697
  H         8.2892602382       -0.5093200159        9.0821315080
  H         9.8772645671       -2.3884791804        8.0049930195
  H        11.6390986825       -3.3644740056        9.5515938234
  H        12.0917267228       -2.4535217727       11.5919233574
