140

  C         3.8652970893        0.2889432492       15.2774976885
  C         4.9358377344        0.9247785435       15.9375573145
  C         6.0524929239        1.3854756966       15.1948286328
  C         7.1366646391        2.1038740206       15.8656711757
  C         8.2282530828        2.6579593249       15.2116804729
  C         4.8176436549        1.2432543462       17.3879568841
  C         3.9951544062        2.3072170943       17.7897751198
  C         3.8937709669        2.6297412161       19.1596718662
  C         4.6306419933        1.8784051899       20.0919284630
  C         5.4773137834        0.8805696488       19.6994826447
  C         5.4895981204        0.4832491944       18.3757211490
  H         7.0863509879        2.1828937523       16.9346933708
  H         8.9813172757        3.1116589317       15.8582834855
  H         3.4883578255        2.9035879410       17.0507968007
  H         3.2952576509        3.4434832629       19.5001049447
  H         4.5665383206        2.0425176561       21.1577745535
  H         6.0655807500        0.3289631125       20.4033001553
  H         6.1530945271       -0.3037815945       17.9912277040
  C         3.8846543688        0.2696390922       13.8312451131
  C         2.8478025973       -0.3692300578       13.0718720174
  C         1.7527448889       -0.9948247455       13.7171346144
  C         1.8226068547       -1.1052660456       15.1730254649
  C         2.9437508193       -0.6547696194       15.9017176461
  C         6.1171253247        1.3850472390       13.8016693827
  C         5.0178191860        0.8206571381       13.0754463678
  C         4.9631429702        1.1139410422       11.6168590837
  C         4.1530164993        2.1988171145       11.2080002643
  C         4.1833001320        2.6843367793        9.8968573054
  C         4.9777534446        2.0722373883        8.8820541693
  C         5.7690534629        0.9701539903        9.2666060779
  C         5.7401217073        0.5456692285       10.6521086495
  H         6.3529303585       -0.3195549468       11.0135558709
  H         6.3951738168        0.5189591144        8.4805816443
  H         4.9253510482        2.3859423758        7.8231421492
  H         3.4398804708        3.5167902257        9.7507841443
  H         3.4640558054        2.5262470350       11.9900451216
  C         7.2578468364        1.9748410111       13.1074785911
  C         8.2839286471        2.6083320131       13.8060456126
  H         9.1777006799        2.9581045781       13.3059309139
  H         7.2606260015        1.8548614460       12.0275928864
  C         2.9738413698       -0.9345462260       17.3570451962
  C         3.8048355687       -2.0543685719       17.7528378848
  C         3.8438256708       -2.4230707584       19.0439442510
  C         2.9468906787       -1.8747644434       20.0200805992
  C         2.0762014778       -0.8983972718       19.6054961754
  C         2.2216904521       -0.3004217660       18.3003743066
  H         1.5706054559        0.5180299799       18.0684836312
  H         1.3458274712       -0.4416425778       20.2593112825
  H         2.8493618667       -2.3475010226       20.9657617335
  H         4.4697549873       -3.2993195339       19.2886949034
  H         4.2774395611       -2.6497868354       16.9818913962
  C         0.9100156270       -2.0460573172       15.7547044528
  C        -0.1133251005       -2.6860916630       15.1223118285
  C        -0.3587818929       -2.3809088522       13.7416872641
  C         0.5967192770       -1.5915165811       13.0803015335
  H         0.4196836331       -1.4445101578       12.0168153613
  H        -1.2647692692       -2.8754313228       13.2989715800
  H        -0.7038956492       -3.3555474603       15.7701106023
  H         0.9973310062       -2.2415447427       16.8211802116
  C         2.8478596637       -0.6020495130       11.5371719264
  C         3.5353962150       -1.7421556390       11.2237134936
  C         3.6177486924       -2.1914631968        9.9197901639
  C         2.8580333829       -1.6105762779        8.9110702105
  C         2.1078564216       -0.4138238215        9.1732009020
  C         2.1292785312        0.1100124873       10.4882653234
  H         1.4324479933        0.9000537192       10.7410912567
  H         1.6175030310        0.1185176551        8.3469883326
  H         2.7978290838       -1.9948835847        7.8983427362
  H         4.2510095945       -3.0833541007        9.7797660192
  H         3.9464898885       -2.2338899105       12.0944916379
  C        10.8230160958        0.0825713896       14.7127068543
  C        11.8807961024        0.8078163181       15.4052240582
  C        12.9794240499        1.4367723983       14.6888859074
  C        14.1342574206        1.8098149034       15.3343083012
  C        15.1567577890        2.4641996301       14.6748256559
  C        11.9424910937        1.0300772169       16.9117612029
  C        11.3910444184        2.2574183860       17.3620634136
  C        11.4807862919        2.7186153652       18.7137418346
  C        12.1986526566        1.9299752526       19.5921818998
  C        12.6779161388        0.6757581744       19.1617441453
  C        12.5223466965        0.2108678499       17.8581413339
  H        14.1956468703        1.7015239271       16.4388377949
  H        16.1419815106        2.7247724201       15.1438654343
  H        11.0277486747        2.8603901798       16.5645626528
  H        10.9540350146        3.6366986150       19.0543821357
  H        12.2758781573        2.1328534704       20.6848412642
  H        13.2114824500        0.0783986825       19.8819415080
  H        12.7771509572       -0.8044213663       17.6281826517
  C        10.7544092244        0.1100165635       13.2578852478
  C         9.7827641498       -0.5378657781       12.5030913797
  C         8.6460292301       -1.1801298427       13.2115865773
  C         8.6666308760       -1.1578142122       14.6818531553
  C         9.7883465197       -0.6186186381       15.3757605242
  C        12.9302142682        1.5209393287       13.2319076623
  C        11.7637703488        0.9565840753       12.5697395905
  C        11.6380654447        1.3407708623       11.1271968263
  C        10.6850875495        2.2761259424       10.7350459427
  C        10.7724342809        2.8564625307        9.5075380485
  C        11.8236825650        2.6013883153        8.6133505265
  C        12.7031847237        1.5288661467        8.9328694358
  C        12.5813584317        0.9289928764       10.1736264277
  H        13.1932812506        0.1793911225       10.5174409881
  H        13.4634898528        1.1633375249        8.2385367591
  H        11.8248301264        3.0984585838        7.6449173728
  H         9.9047730876        3.4449287281        9.3059004039
  H         9.8756045850        2.6625496869       11.3519384280
  C        13.9505188046        2.2868192942       12.5402147965
  C        15.0016403237        2.7501724993       13.2929886385
  H        15.8004292652        3.3574941177       12.8945314829
  H        13.9395737298        2.5780074417       11.5235207655
  C         9.7518308153       -0.8873586455       16.8475344362
  C        10.1901173334       -2.0995086031       17.4883319897
  C        10.1344227010       -2.3495365401       18.8751292330
  C         9.5342846293       -1.3999683710       19.7276208553
  C         9.0938060251       -0.2004838655       19.1293177970
  C         9.1507355977       -0.0398212081       17.7291002951
  H         8.7618176383        0.9131559222       17.3505924351
  H         8.5657735994        0.4961763028       19.7654743183
  H         9.6833439972       -1.5627473348       20.7805872751
  H        10.6560548552       -3.2114424989       19.2258627022
  H        10.8076367295       -2.8116020838       16.9102170573
  C         7.5882880550       -1.8556021700       15.3450502316
  C         6.5527448856       -2.4708651527       14.6590808713
  C         6.5770116431       -2.5061847911       13.2242343019
  C         7.5898256393       -1.8839438441       12.5832444604
  H         7.7072120796       -2.0941951134       11.5038854671
  H         5.8472563266       -3.0978828204       12.6692122376
  H         5.8582812045       -3.0423471748       15.3103182756
  H         7.5538856100       -2.0314107830       16.4064908083
  C         9.9224587001       -0.8623948792       11.0482004113
  C        10.9035702772       -1.8341367316       10.6058083828
  C        11.0603174755       -2.0695116230        9.2283554119
  C        10.1661286053       -1.5383726151        8.2947056291
  C         9.0862146236       -0.7209827010        8.7083721760
  C         9.0188236258       -0.3658471343       10.0611598197
  H         8.2823980351        0.3953657883       10.4145593930
  H         8.2804867351       -0.3812577875        8.0565023970
  H        10.2570265734       -1.8303978169        7.2493367430
  H        12.0276198611       -2.4963329649        8.9057212142
  H        11.4706654853       -2.3040928425       11.4056019448
