140

  C         2.8555613003        0.0481789437       14.7727743126
  C         3.8660510508        0.8232094606       15.4607017711
  C         4.9671502267        1.4043772870       14.7496349580
  C         6.1587210440        1.9450243132       15.3719647496
  C         7.1942518484        2.3528608944       14.6083986299
  C         3.9422815037        1.0536057312       16.9698873308
  C         3.2909380572        2.1371697663       17.6267470030
  C         3.5724741157        2.3484137660       18.9537297307
  C         4.3339960433        1.4180253267       19.7429078032
  C         4.9500169905        0.2954451780       19.1043772440
  C         4.7948060679        0.1729909986       17.6992377909
  H         6.2248843103        1.9967325492       16.4403575203
  H         8.0866578959        2.5973573936       15.0771048283
  H         2.7091706493        2.9340120528       17.1215214261
  H         3.0995789311        3.1992284137       19.4129270318
  H         4.4878836939        1.6480265459       20.7759170284
  H         5.4210392944       -0.5600631285       19.5688163564
  H         5.2764577972       -0.6740163996       17.2027608402
  C         2.8695359921       -0.0002782673       13.3304822971
  C         1.8301836939       -0.7339571834       12.5846886211
  C         0.7360412339       -1.2786566466       13.3772604203
  C         0.7899803853       -1.2631396699       14.7996292803
  C         1.8553988256       -0.6613750760       15.6041941662
  C         4.8724034066        1.4187973367       13.2890085417
  C         3.7566666770        0.8784764088       12.6065730502
  C         3.8526815276        1.2699263263       11.1327592288
  C         3.0380105379        2.3402942240       10.7398549813
  C         3.0302357813        2.9481989816        9.4615803129
  C         3.7931702803        2.3201137584        8.4604247387
  C         4.5909949552        1.2579335875        8.8540220706
  C         4.6200513908        0.7198758515       10.1455195398
  H         5.3935388257       -0.0221418925       10.3436250939
  H         5.2601921313        0.8905091386        8.0525769230
  H         3.7669398179        2.6295591862        7.4227031994
  H         2.4082454177        3.8425851456        9.2605645942
  H         2.3355139549        2.6916892407       11.4723461914
  C         5.8783688338        2.1660777888       12.5691813856
  C         7.0171259385        2.6384157558       13.2094406397
  H         7.7846693770        3.1489732476       12.5897935632
  H         5.8697506206        2.3758949487       11.4977763775
  C         1.8285141274       -0.9603649597       17.1130142444
  C         2.7230507767       -1.9612039841       17.5436662241
  C         2.6664147520       -2.3530149146       18.9196375998
  C         1.8886285842       -1.6587792898       19.8558746244
  C         1.0548323741       -0.6341373865       19.4161201558
  C         1.0283036498       -0.3337162343       18.0567767096
  H         0.3029494526        0.3932837028       17.6475619391
  H         0.3981292934       -0.0806668750       20.0234896792
  H         1.9446046752       -1.9734226266       20.8620436633
  H         3.3751233603       -3.1470016302       19.2445066869
  H         3.3796011510       -2.5086128662       16.8259264751
  C        -0.3711469247       -1.7126945185       15.4390235218
  C        -1.4135505243       -2.3062415489       14.7588014702
  C        -1.3544807460       -2.5457359036       13.3803934054
  C        -0.2770924139       -1.9824086739       12.6904620181
  H        -0.3360519369       -1.8889274554       11.5895371118
  H        -2.0613607565       -3.2087281682       12.9238516441
  H        -2.2272764687       -2.6591814144       15.3905773634
  H        -0.4815749621       -1.6725991447       16.5309140483
  C         2.0107194928       -1.1629473459       11.1777855816
  C         2.9521294851       -2.1694728606       10.8054901665
  C         2.9449679973       -2.6780779569        9.5515637364
  C         2.2417799797       -1.9979923119        8.4657162150
  C         1.3502041096       -1.0152681269        8.8226226729
  C         1.1837050056       -0.6519493665       10.1256142723
  H         0.4300286007        0.1390257553       10.2797431100
  H         0.7701293254       -0.4966540074        8.0309002249
  H         2.3436947317       -2.3657404061        7.3936724439
  H         3.5661217419       -3.4963582645        9.2923916768
  H         3.5659128905       -2.6521778114       11.6033595582
  C        10.3386034401        0.0898177691       14.6682114574
  C        11.3394712211        0.8237481364       15.3631735811
  C        12.4371212495        1.4320730234       14.6985314364
  C        13.4783247581        2.1033350733       15.4238293462
  C        14.6313346237        2.5693523406       14.7926893271
  C        11.1723658093        1.2718462309       16.8060892099
  C        10.3436988080        2.3124080304       17.1149222598
  C        10.3819712171        2.9834999590       18.3867244071
  C        11.2433089923        2.5269326468       19.3785765172
  C        12.0454220050        1.4281120841       19.0886661149
  C        12.0144660735        0.8029725988       17.8583324399
  H        13.4462095895        2.2026370906       16.5271135682
  H        15.3398780588        3.1745011855       15.3642034173
  H         9.6486394066        2.7084248796       16.3506520858
  H         9.7699066068        3.9185052323       18.4952876755
  H        11.2241026219        2.9044136200       20.4027889760
  H        12.6810104016        1.1153970719       19.8792955531
  H        12.7052331892       -0.0077667620       17.6985669701
  C        10.3443182994        0.1190401153       13.1807907906
  C         9.4016563135       -0.6821493633       12.5200366584
  C         8.2931946582       -1.2951979552       13.2150403128
  C         8.2307839750       -1.2167889868       14.6841540912
  C         9.3025423582       -0.6573588863       15.3913756838
  C        12.4733176446        1.4443354019       13.2507088839
  C        11.3591371683        0.9169964946       12.5595472019
  C        11.2076607783        1.3390993950       11.1449674898
  C        10.2762472845        2.3118604072       10.8673482209
  C        10.0089224469        2.6008159840        9.4883733644
  C        10.6750872284        1.9692706813        8.4223586574
  C        11.6969541513        1.1238567249        8.8101541430
  C        11.9738694488        0.7893879859       10.1310702235
  H        12.8220574777        0.1212193314       10.3548551267
  H        12.2947089031        0.6586512203        8.0601706582
  H        10.4542208416        2.1428701403        7.3821750998
  H         9.2600753699        3.3839605916        9.2945776563
  H         9.6555095623        2.7832837115       11.6162415428
  C        13.6763424507        2.0129832130       12.6532302428
  C        14.7089376834        2.5704281989       13.3876557200
  H        15.5175902784        3.1560870223       12.9091222473
  H        13.6471192561        2.1430417527       11.6298464910
  C         9.3595571036       -0.8377027005       16.8102630526
  C        10.0696975583       -1.9209165869       17.3466677478
  C        10.0887321216       -2.1361620716       18.6987776170
  C         9.2467379528       -1.3224217839       19.5458940951
  C         8.5077342716       -0.3421253558       18.9929434418
  C         8.6584016951       -0.0017544302       17.6520216888
  H         8.1898640880        0.8763297042       17.2331575344
  H         7.7736052880        0.2636270057       19.5504181530
  H         9.2084049890       -1.5023314600       20.6404723617
  H        10.6437438821       -2.9901791081       19.0945457860
  H        10.6970110897       -2.5763106634       16.7775177736
  C         7.1521333094       -1.8289937687       15.3952311022
  C         6.0421971946       -2.2652539957       14.6677966837
  C         6.1447114213       -2.3535572330       13.2572727918
  C         7.2471882567       -1.9057261614       12.5061981955
  H         7.3190146317       -1.9358723670       11.3731616362
  H         5.2954497671       -2.7257050475       12.7188374799
  H         5.1508565683       -2.6219742731       15.1825486657
  H         7.2141663552       -1.7884931222       16.4868291162
  C         9.4156748992       -0.9258751643       11.0130837093
  C        10.1927938436       -1.9580590136       10.4079728213
  C         9.9155202727       -2.3312285596        9.0996800055
  C         9.1036064788       -1.4884959074        8.3014704576
  C         8.3613269091       -0.4642259064        8.8794789243
  C         8.5042898593       -0.1972691514       10.2497043550
  H         7.7745223812        0.4995679931       10.6545366296
  H         7.7267994969        0.1261069375        8.2553924326
  H         8.9918115589       -1.6128445114        7.2032637911
  H        10.4287840885       -3.1368770928        8.5889810193
  H        10.8535260913       -2.5263243311       11.0873474290
