140

  C         4.8243265300       -1.2521719703       13.7401769140
  C         5.9286420080       -0.6792962821       14.4271220142
  C         7.0676866130       -0.2709649070       13.7649137278
  C         8.1589627672        0.4805933911       14.3774738213
  C         9.2333042750        1.0726695778       13.7165293936
  C         5.8622654251       -0.4984586247       15.8976121717
  C         5.1263553777        0.5985664820       16.3897372305
  C         5.2321706117        1.0515340914       17.7645948269
  C         6.0286045293        0.3313389757       18.6624971692
  C         6.8777643072       -0.6638297289       18.1719378205
  C         6.7175640825       -1.0950786116       16.8308225572
  H         8.1989544603        0.5414361797       15.4300646917
  H         9.9674460733        1.6659616377       14.2201043525
  H         4.6234011338        1.1003410334       15.5984683790
  H         4.7668505227        1.9991693182       18.0406481786
  H         6.2106784748        0.6579921022       19.6728324527
  H         7.5591303388       -1.1334518311       18.9441039865
  H         7.3199909092       -1.9908301877       16.5270482280
  C         4.8752348312       -1.3915804922       12.2079154292
  C         3.8491329873       -2.1000894478       11.4914623585
  C         2.7580626278       -2.6005183853       12.1884745107
  C         2.7445350884       -2.5379455362       13.7157003560
  C         3.7938853220       -1.9241453148       14.4174606900
  C         7.0518557606       -0.2405045289       12.2671001194
  C         5.9750636925       -0.7799906012       11.5531647182
  C         5.8855362775       -0.4878483987       10.0401304207
  C         4.9669011507        0.5009465618        9.5813191728
  C         4.9801498151        1.0024905674        8.2817342764
  C         5.9024766766        0.4702932716        7.3826137937
  C         6.9222319416       -0.4807919877        7.7861879186
  C         6.8917511853       -0.9193276579        9.1326926432
  H         7.5197148525       -1.7085443385        9.5837955693
  H         7.6220201064       -0.8628614567        7.0208258620
  H         5.9226479993        0.6979399435        6.3234277359
  H         4.3629781236        1.8371913428        8.0177099907
  H         4.2350714992        0.8312369357       10.3129771133
  C         8.1519010166        0.4613486108       11.6542093338
  C         9.2333723492        0.9933000725       12.3329814274
  H        10.1496161971        1.3941956102       11.8298829940
  H         8.1324168039        0.6438813109       10.5496417208
  C         3.9051883961       -2.3931502065       15.8610487189
  C         4.8457859927       -3.4768526214       16.0498469486
  C         5.0219998076       -4.0514229559       17.3295089019
  C         4.4575515771       -3.3979094179       18.4683799579
  C         3.4059184771       -2.4980625477       18.2108301570
  C         3.1383546956       -1.9631351170       16.9438606857
  H         2.3226487425       -1.1601576484       16.8514161250
  H         2.8079211281       -2.1038523728       19.0948196449
  H         4.5355136501       -3.8393426629       19.4414871596
  H         5.8115998801       -4.7622069400       17.4820966572
  H         5.3927037371       -3.8908500327       15.2149334847
  C         1.6305308820       -3.1143313167       14.4205090649
  C         0.5985468279       -3.6940188270       13.7635911713
  C         0.6329040393       -3.7874328169       12.3424396988
  C         1.6919717474       -3.3041348668       11.6082516128
  H         1.6374354745       -3.4042244621       10.5421696278
  H        -0.1653577033       -4.2916341255       11.8113200219
  H        -0.2413238597       -4.0344283253       14.3077129100
  H         1.7519739983       -3.0981036498       15.5237317592
  C         4.0062064963       -2.4460652319       10.0075709819
  C         4.8881143109       -3.4498465941        9.6021575173
  C         4.8492631464       -3.8813252853        8.2996825305
  C         3.9831401439       -3.3591928032        7.3439509977
  C         2.9820074702       -2.4817046622        7.7881023128
  C         3.0716506390       -1.9831395468        9.0766341777
  H         2.3925784216       -1.2266184567        9.4295409807
  H         2.1600597259       -2.1349362421        7.2222928445
  H         3.9594269724       -3.6157620069        6.3238904713
  H         5.5748581338       -4.5966616323        8.0024697240
  H         5.5148188049       -3.9478646244       10.2842625480
  C        12.2613797033       -1.5142730212       14.0091214973
  C        13.3333705840       -0.7247726322       14.6828381849
  C        14.3629671351       -0.0821441006       13.9517743685
  C        15.4416504763        0.6294525376       14.6120106692
  C        16.4366039043        1.2535186895       13.8642204552
  C        13.1153580832       -0.1300896580       16.0318875234
  C        12.0623832867        0.8128605489       16.1131269758
  C        11.9141271357        1.5125197921       17.3405528168
  C        12.6940439232        1.2562665038       18.4384634030
  C        13.7720251476        0.3552482445       18.2818642699
  C        13.9448803612       -0.3839960346       17.2064297132
  H        15.4675350219        0.5985585988       15.7433238274
  H        17.1830716868        1.7678700652       14.3698139136
  H        11.5239170459        1.0776378416       15.2040318677
  H        11.1079490061        2.1869463578       17.5068942807
  H        12.5232651345        1.6975328780       19.4039143164
  H        14.4517343139        0.2494686132       19.1129751513
  H        14.7990289877       -1.0945705902       17.0983559313
  C        12.2098065411       -1.4612431474       12.5481985828
  C        11.0997546581       -2.0735209887       11.8712574847
  C        10.0873144691       -2.6797558785       12.5909700615
  C        10.0733170841       -2.7110828689       14.0116736824
  C        11.2770668524       -2.2575962551       14.7260569416
  C        14.2874742363       -0.1499785693       12.5284047580
  C        13.1877074428       -0.6849973505       11.7966181711
  C        13.0608986849       -0.3025847683       10.3356337948
  C        12.4240502058        0.8502296030        9.9134347415
  C        12.4315305980        1.1747392051        8.5436319628
  C        13.0503423323        0.4252374170        7.5395059153
  C        13.8102789721       -0.6655834214        8.0218476908
  C        13.8026510050       -1.0678732180        9.3544387712
  H        14.2937824666       -1.9464297730        9.6172944218
  H        14.3482657576       -1.2699817797        7.3464006285
  H        12.9611056931        0.7921677158        6.5210468618
  H        12.0421435766        2.2227970516        8.2655261378
  H        11.8018182400        1.3865610413       10.6549883697
  C        15.3628041488        0.4647863214       11.7703860494
  C        16.3985911823        1.0824124282       12.4658636340
  H        17.2051182717        1.5185870919       11.8944161927
  H        15.5136016390        0.3645522256       10.7260820349
  C        11.4582172121       -2.5179729842       16.1923084912
  C        12.5827604401       -3.1801270801       16.6200969125
  C        12.6851374842       -3.6994479278       17.8911135458
  C        11.6595140878       -3.4658693725       18.8610963973
  C        10.5591957425       -2.7231651166       18.4807801230
  C        10.5010708150       -2.2291881541       17.1578936601
  H         9.6807645502       -1.4896538137       16.8402042792
  H         9.8067298203       -2.5006577576       19.1423150010
  H        11.7401090081       -3.7938678740       19.9234067336
  H        13.5985217264       -4.2077190244       18.1534996752
  H        13.3039860138       -3.4313795932       15.8289625996
  C         8.9317838923       -3.4233935974       14.6881169584
  C         7.9097747355       -3.9380723017       13.9393374529
  C         7.8977486661       -3.7448519033       12.5190497921
  C         8.9612807968       -3.2454960355       11.8908442029
  H         9.0152664337       -3.3352610579       10.7796196286
  H         7.1851131633       -4.3207037842       11.8814009454
  H         6.9761621375       -4.3746113645       14.4400811072
  H         8.9936510276       -3.5930942325       15.7475062979
  C        11.2097683157       -2.4422407869       10.3990818202
  C        11.9727184945       -3.5756773435       10.0034881166
  C        12.0408689462       -3.9707621724        8.6654911440
  C        11.2806532601       -3.3066975140        7.7088525227
  C        10.4588468835       -2.2630188685        8.0558492659
  C        10.4467409614       -1.8141630047        9.3987074125
  H         9.6914950331       -1.0158413097        9.6195574450
  H         9.8511934634       -1.7390990601        7.3070109810
  H        11.4246075150       -3.6114592429        6.6531479086
  H        12.7955586771       -4.7109373238        8.4427618071
  H        12.5187479971       -4.1288425298       10.7965513472
