140

  C         1.9708745581        0.6091533513       14.9542227501
  C         2.9740812297        1.3580647519       15.6469613939
  C         3.9379954256        2.0005407401       14.8991789979
  C         5.0046186986        2.7551933097       15.5202172928
  C         5.9763571419        3.4108005168       14.8322009961
  C         2.9837076730        1.7438349498       17.1560982133
  C         2.2485760685        2.8885923575       17.4495498333
  C         2.4082947745        3.4489740122       18.7098722478
  C         3.1583427958        2.6876237890       19.6924331586
  C         3.7548467683        1.5091969572       19.4022203732
  C         3.6916906608        1.0111534167       18.1477197199
  H         4.9849587270        2.6427991295       16.6132486945
  H         6.7210520319        4.0361135530       15.3280269196
  H         1.8095136499        3.4560895938       16.6131312013
  H         2.0065135121        4.4036237842       18.9722847521
  H         3.4161438868        3.1766776344       20.5861826543
  H         4.5544511689        1.1889286743       20.0323256222
  H         4.1687786073        0.1061696983       17.8817053709
  C         1.8984781850        0.6627260289       13.4941650169
  C         0.7995632112       -0.0061075908       12.8659613603
  C        -0.3152606680       -0.5654692508       13.5674637752
  C        -0.3427515128       -0.4759338131       15.0107998497
  C         0.8559527311        0.0330247600       15.6616864033
  C         3.9437478948        2.0055410660       13.4259630943
  C         2.8893325707        1.3659938522       12.8059448487
  C         2.7923123396        1.7106312560       11.3488686139
  C         1.9637748659        2.7580792326       10.9229468086
  C         1.8806588534        3.1199746345        9.5260599797
  C         2.7574773963        2.5868021460        8.5725403477
  C         3.5462755985        1.4860641868        8.9747032706
  C         3.5453053912        1.1096377745       10.3532125808
  H         4.1719404691        0.2879429804       10.7369290265
  H         4.2358056114        0.8440520094        8.3865546267
  H         2.7703252332        2.9201472704        7.5187688423
  H         1.1272609683        3.8889740013        9.1859715239
  H         1.2550655499        3.2833785217       11.6269610053
  C         4.9647489650        2.7178951407       12.6920845802
  C         5.9515306634        3.3374919286       13.4190010836
  H         6.6662747004        3.9355917456       12.7910200442
  H         4.9765886850        2.7019027679       11.5722584597
  C         0.8172836864       -0.2867265776       17.1379029731
  C         1.3694459796       -1.4514539027       17.6172656063
  C         1.0953419806       -1.8738019431       18.8971470214
  C         0.3959993244       -1.1478069025       19.8185750205
  C        -0.1747351724        0.0491814197       19.3711503631
  C         0.0464828008        0.4905654670       17.9998263606
  H        -0.3836125135        1.3645234981       17.5023613246
  H        -0.8488411506        0.6925986025       19.9180658578
  H         0.0946438116       -1.5000914202       20.8500776201
  H         1.6370428863       -2.7828376166       19.2337800027
  H         1.8631320452       -2.1639106980       16.9900999750
  C        -1.5413016506       -0.8410882526       15.7311183138
  C        -2.4795894531       -1.4506530853       14.9903893831
  C        -2.3737388143       -1.8135007877       13.6072964050
  C        -1.2521041422       -1.3641265900       12.8808686790
  H        -1.1256193555       -1.4708313302       11.8108614068
  H        -3.0791480503       -2.5457546402       13.1187684325
  H        -3.4380213511       -1.7213871068       15.4563575985
  H        -1.5724598963       -0.7779238408       16.7864030121
  C         0.9755988642       -0.3642957681       11.4588357450
  C         1.8472596477       -1.4206503191       11.0861064944
  C         1.9727139049       -1.9012435119        9.7726228976
  C         1.0373320269       -1.5510366087        8.7686233848
  C         0.1476027584       -0.5345362035        9.1586544922
  C         0.1080888572        0.0603704259       10.4631042362
  H        -0.6057519083        0.8298706822       10.6648831845
  H        -0.6081271244       -0.1487147744        8.4753022555
  H         1.0647652160       -1.7047016455        7.6901751555
  H         2.8362217778       -2.5451051028        9.5053458579
  H         2.6491031716       -1.8037842520       11.7549891286
  C         8.9428803802        1.1346871968       14.9748996771
  C         9.8713299043        1.9953483427       15.5848356895
  C        11.0397962341        2.4412311917       14.8281414857
  C        12.0642605142        3.1839254231       15.5122334808
  C        13.1989849451        3.7118275836       14.9057001829
  C         9.7517255463        2.4066289861       16.9994996808
  C         8.9409730315        3.4553421461       17.3999673230
  C         8.8427684143        3.7990905101       18.7865961399
  C         9.6966609360        3.2373858358       19.7651590908
  C        10.5505329135        2.2106093513       19.3228897672
  C        10.5378144346        1.7949508901       17.9904546705
  H        11.9332879638        3.2616235270       16.6210636702
  H        13.9780326205        4.2144989823       15.4359943730
  H         8.2494011100        3.8519284585       16.6338702310
  H         8.2008922934        4.5677475232       19.1752749168
  H         9.6879486931        3.6033644674       20.7850294493
  H        11.1999183349        1.6848831505       19.9913997212
  H        11.1569632134        0.9273720952       17.7037294527
  C         9.0118699468        1.0400783155       13.4981414970
  C         8.0068494645        0.2685000426       12.7343197051
  C         6.9284472657       -0.2642707091       13.4956573964
  C         6.9686798392       -0.3659059978       14.9595132023
  C         7.9739765094        0.3485642104       15.6729346935
  C        11.1774509978        2.1943758841       13.4327061618
  C        10.1414139132        1.5925111833       12.7691550785
  C         9.9833653482        1.8985925328       11.3156367799
  C         9.1349545576        2.8442702293       10.8229325906
  C         9.0623603690        3.2679206938        9.5068477205
  C         9.9077491226        2.7392109690        8.5562501597
  C        10.8816355583        1.7533917400        8.9913252082
  C        10.8854571168        1.3395612100       10.3409028012
  H        11.6843517565        0.6911868060       10.6805512320
  H        11.5614715041        1.2391816671        8.2742491166
  H         9.9375886281        2.9893976301        7.4721943861
  H         8.2466207466        4.0466679348        9.3118242903
  H         8.3683171279        3.2598049283       11.4765026471
  C        12.3217138464        2.8683315657       12.8227631638
  C        13.2970605311        3.5148117900       13.5005008506
  H        14.1206756684        3.9157573846       12.9258039519
  H        12.3851130968        2.7306560478       11.7750460280
  C         8.1718554266       -0.0390977386       17.1031236931
  C         9.0952025351       -1.0850526253       17.4990991888
  C         9.2917485194       -1.5142762182       18.8559970432
  C         8.3761007848       -0.9686965814       19.7756660734
  C         7.4030300063       -0.0126292799       19.4430293051
  C         7.3071597284        0.4282426851       18.1050796267
  H         6.6944420818        1.2669403695       17.8650244364
  H         6.6858031063        0.2672499015       20.2145692816
  H         8.3675513584       -1.3492988294       20.8038193157
  H         9.9487225542       -2.2934267400       19.1647166891
  H         9.7809385396       -1.4712010227       16.7478804732
  C         5.8808773283       -1.0391369100       15.6352452122
  C         4.7932313155       -1.5268130861       14.9594875859
  C         4.8526784782       -1.5948598421       13.5845365422
  C         5.8841642110       -1.0066969271       12.8724259400
  H         5.9153024686       -1.1872307773       11.8132305759
  H         4.1618394709       -2.2161021465       13.0416555207
  H         3.9133632749       -1.8786560442       15.5236562251
  H         6.0546548630       -1.1386397949       16.7103272611
  C         8.0287934952       -0.0810796693       11.2326782789
  C         8.8694262944       -1.1018988853       10.8199344650
  C         8.8522733458       -1.5735717628        9.4464018304
  C         7.9244570177       -0.9500921537        8.5935859198
  C         7.1627961538        0.1668389122        9.0287346606
  C         7.2432890544        0.5827057439       10.3436676213
  H         6.5792438140        1.3861427323       10.6524009293
  H         6.3823963610        0.5733486834        8.4040175297
  H         7.8231586253       -1.1579652080        7.5519820616
  H         9.5898264365       -2.3316507558        9.2037861442
  H         9.6347026114       -1.4632267469       11.5368554971
