140

  C         3.8666875646        0.0342049212       14.5706462991
  C         4.8837262083        0.7720437810       15.2988105045
  C         5.8875899170        1.4128615233       14.4891273503
  C         7.0476459541        1.9468815970       15.1365277987
  C         7.9975205761        2.6891682545       14.5307686413
  C         4.8903068676        1.0326389017       16.7432554534
  C         4.3805347333        2.2284805924       17.2411760716
  C         4.4345980654        2.5864679522       18.6268749189
  C         5.1574243988        1.7590437390       19.5155291467
  C         5.7072618908        0.5974846535       19.0022496813
  C         5.5094336340        0.2222917876       17.7069303731
  H         7.2047692178        1.8599870538       16.2228160803
  H         8.8390812721        3.1560138903       15.0798109118
  H         3.9194706358        2.9398548823       16.5353862881
  H         4.0222206011        3.5819859437       18.8511195057
  H         5.2607769173        2.0006381787       20.5426715159
  H         6.2286546394       -0.0553021376       19.7064876968
  H         5.8523676842       -0.7702590934       17.3990174240
  C         3.8383538601        0.0911523529       13.0898459904
  C         2.8183599656       -0.6448585784       12.3553958377
  C         1.7244788790       -1.1909194091       12.9444414261
  C         1.6952464781       -1.1566867387       14.4087011663
  C         2.7042353190       -0.6523678404       15.2076026574
  C         5.7913549600        1.5702659916       13.0753551348
  C         4.7120536813        1.0259887634       12.4103096986
  C         4.5713577831        1.4152382289       10.9390396360
  C         3.7742932090        2.5023806397       10.5835869209
  C         3.6898797384        2.9320638338        9.2297291876
  C         4.4699207055        2.3255948911        8.2754610163
  C         5.2781311984        1.2511352907        8.6168198220
  C         5.3538994961        0.7975770393        9.9230851970
  H         6.0207086375       -0.0930524224       10.1735511794
  H         5.8575395868        0.7768485503        7.8372544790
  H         4.5710711328        2.6481902752        7.2361633486
  H         3.1467173850        3.8479750417        9.0377106291
  H         3.1526114094        3.0028392737       11.3273704072
  C         6.7752329263        2.3668577558       12.3991667579
  C         7.8660797762        2.8692590282       13.1229547042
  H         8.5655723192        3.5519606736       12.6611751931
  H         6.6365804182        2.4731599530       11.3248704401
  C         2.7396402567       -0.9524450317       16.6859908548
  C         3.3680387975       -2.1264604702       17.2437125585
  C         3.3259449019       -2.3252553102       18.6438826756
  C         2.7533573963       -1.3070382186       19.4457711657
  C         2.1728849512       -0.1808502845       18.8683420978
  C         2.1288470428        0.0133155848       17.4933268894
  H         1.7528760339        0.9851499591       17.1452409415
  H         1.7312954592        0.5364824385       19.5372419111
  H         2.8813381468       -1.3035421758       20.5759666287
  H         3.8390098368       -3.1826069239       18.9669980461
  H         3.8116714884       -2.8314523240       16.6166249822
  C         0.4494072855       -1.6229478665       14.9710247986
  C        -0.6138312774       -2.0884746377       14.2910000837
  C        -0.4735690465       -2.2584447793       12.8461603223
  C         0.6523183010       -1.8781784052       12.1966334486
  H         0.7478864034       -2.1039609114       11.1269770986
  H        -1.2406097079       -2.8901597187       12.3550472483
  H        -1.4725277281       -2.4604126345       14.8266442032
  H         0.3927256546       -1.5705776151       16.0418148590
  C         2.9455780315       -0.9763435040       10.8935592942
  C         3.7175475141       -2.1236234611       10.4071561137
  C         3.6559709790       -2.4396439622        9.0573590164
  C         2.8148539884       -1.7449671586        8.1598991637
  C         2.0967493513       -0.6367289066        8.6096206248
  C         2.1752083807       -0.2819937023        9.9749994077
  H         1.6938420636        0.6968467302       10.2983987466
  H         1.3581204804       -0.1470837985        7.9690700072
  H         2.7894170494       -2.0581959919        7.0913133051
  H         4.3457780738       -3.1862731276        8.6685719061
  H         4.4377023756       -2.4864233488       11.0947037600
  C        10.6833813829       -0.1716994909       14.9141935718
  C        11.6804278489        0.6182716774       15.6230398539
  C        12.7449506639        1.1976320603       14.9535211159
  C        13.6968031348        1.9898956258       15.7099016611
  C        14.7273451996        2.6317998510       15.1293031923
  C        11.5660917539        0.9405344753       17.1328173829
  C        10.5937277510        1.8462191747       17.6027167400
  C        10.5898268662        2.2891434972       18.9262913274
  C        11.5679067112        1.8207749585       19.7901122609
  C        12.4618509156        0.8270305322       19.3550617589
  C        12.4061885209        0.3272522837       18.0588265831
  H        13.4884181679        2.1132018354       16.8100627729
  H        15.3663628851        3.2428806475       15.8182323448
  H         9.8254588462        2.2047783280       16.9183945227
  H         9.8219236861        2.9605864359       19.2141251712
  H        11.6059114612        2.1632705165       20.8040947684
  H        13.1421418857        0.3711080266       20.0393017921
  H        13.0782936059       -0.4876476902       17.7131509165
  C        10.6536473772       -0.0285952870       13.4061404319
  C         9.6180179640       -0.7434434353       12.7003604101
  C         8.5699758995       -1.3972896123       13.3668113648
  C         8.6025827581       -1.5408834883       14.7660105537
  C         9.6477109774       -0.9237638485       15.4941704518
  C        12.8286702939        1.2424575746       13.5587686919
  C        11.7541714683        0.6555400223       12.7871327365
  C        11.7290872285        1.0041932302       11.3439956312
  C        11.0150426365        2.0646908474       10.8208620304
  C        11.0492463924        2.3940118775        9.4316523967
  C        11.8659604649        1.6961034703        8.5283718318
  C        12.5163377784        0.5692799289        8.9892852932
  C        12.4122987677        0.2387658591       10.3513112270
  H        12.8046145746       -0.7097774200       10.6909592193
  H        13.1514665565       -0.0382851867        8.2885765833
  H        11.8116462268        1.9738831731        7.4673895229
  H        10.3826862405        3.2270426210        9.1479427139
  H        10.4261855928        2.6645250165       11.5139903847
  C        13.9118553824        1.9618636521       12.9563273044
  C        14.8340960173        2.6753692947       13.6917376792
  H        15.5998795577        3.3046897654       13.2673627958
  H        13.8741331209        2.1167524300       11.9048727168
  C         9.8442249927       -1.2805220877       16.9135682203
  C        10.8332454737       -2.1821367185       17.2554105357
  C        11.0803983797       -2.5754869106       18.5906949387
  C        10.3556826202       -2.0013233011       19.5954787179
  C         9.3034684671       -1.1740888840       19.2850841289
  C         9.0775250456       -0.7646652485       18.0052567903
  H         8.2064245457       -0.1898680927       17.7686386359
  H         8.5806379312       -0.8900374431       20.0578535706
  H        10.4931619552       -2.2473579141       20.6259945178
  H        11.7925763084       -3.3711549571       18.7595282893
  H        11.1977421332       -2.6994563164       16.3960025989
  C         7.5403187355       -2.3255191730       15.3928339250
  C         6.5350889150       -2.9296599700       14.6022234406
  C         6.5136071895       -2.7346832133       13.2229404552
  C         7.4903269113       -2.0056161128       12.6327876745
  H         7.3956241051       -1.8888370223       11.5727129371
  H         5.7830718299       -3.2202051310       12.5690658917
  H         5.7253099805       -3.4345230632       15.1590830522
  H         7.6072501877       -2.4491030878       16.4536053316
  C         9.6131088239       -0.9259948837       11.2185504552
  C        10.4089043207       -2.0150253141       10.7617548298
  C        10.2657707687       -2.4933524726        9.4149670132
  C         9.4389108272       -1.7665302396        8.5393381115
  C         8.7836129620       -0.5948041165        9.0107640467
  C         8.9048419210       -0.1053687669       10.3287829558
  H         8.3806810673        0.8051528578       10.5358834557
  H         8.1408774520        0.0621735346        8.3863323209
  H         9.4338790238       -2.0317435416        7.4779894699
  H        10.5646434097       -3.5098860875        9.1175816065
  H        10.9518381238       -2.6293084396       11.5084744249
