140

  C        11.8897896983        6.3643942718        0.3620468562
  C        10.8294183864        7.0276469421        1.0250580152
  C         9.7833643006        7.5664837523        0.2497019784
  C         8.6635526646        8.1915777719        0.8866350882
  C         7.6727052593        8.9195458582        0.2126221412
  C        10.8057837912        7.3747154923        2.4494030259
  C        11.5519632473        8.5198905655        2.7860792186
  C        11.5666301995        8.9985971783        4.0962160296
  C        10.7869725193        8.3955973357        5.0706410822
  C         9.9521067987        7.2938220653        4.7848192022
  C        10.0510020777        6.7345302220        3.4724026038
  H         8.7371732936        8.2278863123        1.9701447978
  H         6.8519638892        9.4034357457        0.7057932750
  H        12.0956357876        8.9373447947        2.0132541688
  H        12.2371021953        9.8495057319        4.3360845636
  H        10.6154387408        8.6514053236        6.1452442115
  H         9.4286593242        6.9361933711        5.6295806298
  H         9.6953127547        5.7926158422        3.3009250197
  C        11.9343528747        6.4537840573       -1.1139475559
  C        12.9808568270        5.7281242351       -1.7294431397
  C        14.0285442486        5.1255632479       -0.9904932634
  C        13.9146582760        5.0112122892        0.4701114544
  C        12.8501034792        5.6775887896        1.1136966701
  C         9.8172149382        7.7245989600       -1.1789827741
  C        10.9256163964        7.1214581263       -1.8856366410
  C        10.9905635765        7.4765790224       -3.3305033535
  C        11.9029321879        8.4831549204       -3.7575865742
  C        11.8123533931        9.0329548412       -5.0605270977
  C        10.8690253237        8.5316330473       -6.0042105349
  C         9.8810167123        7.6316848994       -5.5510739499
  C        10.0274377303        7.0207282874       -4.3130051202
  H         9.3202661852        6.2033778395       -3.9991725598
  H         9.0624019604        7.3257110770       -6.2611732281
  H        10.7332306012        8.9763281990       -6.9700077232
  H        12.4626348589        9.8511143384       -5.2654527088
  H        12.6427184483        8.8727815143       -3.0624252337
  C         8.7395765369        8.3874590315       -1.9122362848
  C         7.6940817308        8.9333354248       -1.2147133230
  H         6.8958276322        9.3463872940       -1.7997981305
  H         8.6605073913        8.2394192682       -2.9752175956
  C        12.7763376296        5.3458330603        2.5882001025
  C        12.0023428600        4.2393366971        2.9651956481
  C        11.9016336702        3.9190573404        4.3572571153
  C        12.8366775785        4.4715687974        5.1921516476
  C        13.7593161491        5.4597405714        4.7622760292
  C        13.6576712941        5.9350912806        3.4843309427
  H        14.1821394750        6.8555210156        3.1406366003
  H        14.4573517735        5.7965529817        5.4734961174
  H        12.9802687850        4.1128729438        6.2001902305
  H        11.2313792515        3.1473559662        4.6407306168
  H        11.3535967895        3.7351468314        2.2981837274
  C        14.9372524229        4.4042870171        1.2318196629
  C        16.0306232125        3.8428122526        0.5484077221
  C        16.0315449729        3.7685218375       -0.8916116040
  C        15.1038981044        4.3702916786       -1.6407348592
  H        14.9709201569        4.1520075458       -2.6786189515
  H        16.8650534117        3.1629744310       -1.3577202839
  H        16.8499650279        3.5386780263        1.1678669154
  H        14.9546107340        4.3657239414        2.2788775295
  C        12.7753550553        5.3310241081       -3.1801466214
  C        11.8369979908        4.2591923921       -3.4153680866
  C        11.5081778908        3.9310935086       -4.6849591916
  C        12.2623330719        4.4359989097       -5.7695271337
  C        13.2146354737        5.4739334005       -5.5430955529
  C        13.5233275622        5.8824278716       -4.2351623004
  H        14.2001300922        6.8046068456       -4.0616733334
  H        13.8626986532        5.9443163996       -6.3499690784
  H        12.1312199429        4.0199621404       -6.7924869468
  H        10.7300048087        3.1796195264       -4.9919520159
  H        11.2821529015        3.9518003513       -2.5206603930
  C        18.9801744974        6.6264598387        0.2584745142
  C        17.9515075599        7.2530514986        1.0196662308
  C        16.7808436537        7.6980001975        0.3662062712
  C        15.6332975588        8.2092883631        1.0968332369
  C        14.6494566093        8.9411464301        0.4947713714
  C        18.1761052233        7.6747158581        2.4828527823
  C        19.0488814754        8.7097619326        2.8689736720
  C        19.1368858027        9.2343975120        4.1619602040
  C        18.1813371611        8.7828840139        5.1187291475
  C        17.2881438151        7.8007105107        4.7042434183
  C        17.3133496997        7.2105906254        3.4871450189
  H        15.8330430251        8.3044645116        2.1911291856
  H        13.9491064122        9.6366464754        1.0266640353
  H        19.7318577583        9.1921394969        2.1868532351
  H        19.8506396951       10.0567453838        4.3173029976
  H        18.0751721891        9.3222329079        6.0519350211
  H        16.5429386566        7.4651919302        5.4388343267
  H        16.6127596283        6.4162463960        3.2418426084
  C        18.9432106170        6.6493517904       -1.2042048611
  C        19.9004924855        5.8222295113       -1.9452685015
  C        21.0013334297        5.2652333593       -1.2742303368
  C        21.0561615552        5.2470518254        0.1564081441
  C        20.0152532116        5.8700255662        0.9222378529
  C        16.7111329489        7.7388394771       -1.1109419665
  C        17.8619072851        7.2926703097       -1.8417409287
  C        17.8654728807        7.5943157997       -3.3678878436
  C        18.7572644432        8.5125279172       -3.9118394211
  C        18.8260852093        8.7470572276       -5.2925117054
  C        17.8558533173        8.1886013293       -6.1658462138
  C        16.9081786999        7.3882754165       -5.5657156298
  C        16.9515909808        7.0182750654       -4.2157467793
  H        16.2610137264        6.2641124074       -3.8529399502
  H        16.2137801213        6.9187927865       -6.2775396750
  H        17.8637656080        8.3770641510       -7.2359066661
  H        19.7119486990        9.2764029952       -5.6898852930
  H        19.3506545792        9.1148532924       -3.1475986971
  C        15.6195228904        8.4473589745       -1.6604972988
  C        14.5548142183        8.9658912149       -0.9401461223
  H        13.7266684932        9.4348038578       -1.5099449959
  H        15.5090591859        8.3833160158       -2.7664346442
  C        19.9236135002        5.5598409340        2.4103667921
  C        19.1582566603        4.4682141439        2.8132151340
  C        19.2138904447        4.0553166294        4.1734834993
  C        19.9615847673        4.6772232607        5.1300866820
  C        20.8179826858        5.7202163612        4.7222413878
  C        20.8324188727        6.1142655228        3.3879832909
  H        21.5543559431        6.8360272932        2.9723114752
  H        21.4897902025        6.2888521585        5.3569002041
  H        19.8999494619        4.4152647926        6.1587317544
  H        18.5590110287        3.1906244898        4.2826527583
  H        18.5667485741        3.9751240476        2.0979821301
  C        22.1591724048        4.5366819023        0.8044123622
  C        23.0886766631        3.8191255837        0.1373998911
  C        23.0481824299        3.8406363032       -1.3192052828
  C        22.0826312141        4.5870494328       -1.9571770295
  H        22.0687127310        4.5051058795       -3.0114520642
  H        23.8389782861        3.4306819640       -1.9538720146
  H        23.8657664042        3.3131983035        0.7031049445
  H        22.1275452963        4.4217800438        1.8782150370
  C        19.8326673300        5.4267969532       -3.4109087803
  C        18.8988146243        4.4601100304       -3.8072210356
  C        18.8972405674        3.9387744125       -5.0969635309
  C        19.6512881235        4.5828498352       -6.1115963871
  C        20.5563021770        5.5669990892       -5.7573900350
  C        20.6848667172        5.9342789996       -4.4196919157
  H        21.3862761882        6.7928389336       -4.1112727222
  H        21.3022598291        5.9579824141       -6.4592115901
  H        19.6307123328        4.2002436217       -7.1144742972
  H        18.2502920659        3.0806151705       -5.3976820194
  H        18.1778207124        4.0262688215       -3.0352366154
