140

  C         4.5821166894       -1.4259599291       13.9447118526
  C         5.7038397626       -0.7973796094       14.6018749087
  C         6.6904287141       -0.1766732473       13.8643637822
  C         7.8368596772        0.3990003631       14.4718417955
  C         8.8749227106        0.9270730613       13.7576929586
  C         5.7693652603       -0.3457720866       16.0514813114
  C         4.9766343760        0.6848886212       16.5597953781
  C         5.0854332053        1.1319784239       17.8862480902
  C         5.9270074519        0.3931315991       18.7666421348
  C         6.6100510086       -0.7462865353       18.3084720490
  C         6.5431408873       -1.1052507149       16.9586030422
  H         7.9294042032        0.3039299285       15.5808210460
  H         9.8138721270        1.2216938151       14.2981480560
  H         4.1482364339        1.1277846485       15.9061809700
  H         4.5276441496        1.9996949538       18.2608339654
  H         6.0934395744        0.6956816832       19.8005286633
  H         7.2563852281       -1.2504048750       18.9551629820
  H         7.1389556071       -1.9074345140       16.5459324995
  C         4.4614505853       -1.3471855577       12.4662188301
  C         3.3887003510       -2.0229677206       11.7380732211
  C         2.3120305435       -2.5294027992       12.4704998199
  C         2.3522028558       -2.5767193526       13.9041409272
  C         3.4370231157       -2.0853416170       14.6633715765
  C         6.5696045540       -0.0721591972       12.4713010168
  C         5.4718583901       -0.5903486988       11.7592578055
  C         5.3989450069       -0.1284939622       10.3166939977
  C         4.5275808747        0.9182460045        9.9405782432
  C         4.3526753194        1.3122407934        8.6153830343
  C         5.2628272675        0.8086011683        7.6810890371
  C         6.1416120186       -0.2379748637        8.0546245563
  C         6.2056170955       -0.7360761099        9.3077404464
  H         6.8852866947       -1.5599650716        9.5397362731
  H         6.7812818300       -0.6362692583        7.2770201529
  H         5.2170443352        1.1212964510        6.5805898487
  H         3.5308655497        1.9598729993        8.3716336260
  H         3.9833255257        1.4183713307       10.7326797043
  C         7.5947668258        0.5981196701       11.6956073930
  C         8.7070580831        1.1988990178       12.3378290027
  H         9.4620368783        1.6632507050       11.7140672772
  H         7.4860712263        0.8136716140       10.6262731433
  C         3.5422436332       -2.4858236278       16.0837110750
  C         4.3875468325       -3.5448949262       16.3968833122
  C         4.3370070010       -4.0191729615       17.7194539823
  C         3.6031937386       -3.3349738490       18.7187684329
  C         2.7483231854       -2.2308443758       18.3028850643
  C         2.6770312309       -1.8644707903       16.9881047985
  H         1.9866978915       -1.1427530731       16.6800080124
  H         2.0943652880       -1.7157579605       18.9849714146
  H         3.5915522950       -3.6196190579       19.7996865264
  H         5.0911293936       -4.7897480813       18.0303103775
  H         5.0200034419       -4.0873743736       15.6109863890
  C         1.3988986364       -3.3352247817       14.6418072134
  C         0.3684017311       -3.9332484653       13.9795950932
  C         0.2131391420       -3.7607749948       12.5794512962
  C         1.2142767660       -3.1821730212       11.8142870186
  H         1.0551926931       -3.2110170680       10.7542870687
  H        -0.6963420560       -4.2237735067       12.1854662694
  H        -0.3429198808       -4.3903189942       14.5929776073
  H         1.5675425961       -3.5425004549       15.6759805876
  C         3.4040298433       -2.2784791969       10.2161460414
  C         4.3187281873       -3.2103540429        9.7196907759
  C         4.3515211860       -3.5542846264        8.3728216320
  C         3.3801254934       -3.0983003925        7.4744093174
  C         2.5355958543       -2.0898679674        7.9323053030
  C         2.5828125508       -1.6631508168        9.2909887033
  H         1.9690943136       -0.8551543829        9.6050219334
  H         1.8055191410       -1.6581726101        7.2122707546
  H         3.3314467681       -3.5927157451        6.5125054724
  H         5.1689749897       -4.2538268645        8.0438698430
  H         5.0675083219       -3.4847086593       10.3710320071
  C        11.8003785341       -1.0702474042       14.0297852419
  C        12.7828528643       -0.3100923379       14.6991719768
  C        13.9050950773        0.1815535213       13.9860346549
  C        14.9534302557        0.9049805186       14.6160291962
  C        16.0039427396        1.4176565492       13.9832968666
  C        12.6460573127        0.0049679154       16.1179061611
  C        11.8179510129        1.0651204390       16.4136546942
  C        11.7472315310        1.6187870786       17.7522743864
  C        12.5340151375        1.0193337499       18.7486510267
  C        13.4511130915       -0.0731046849       18.4129749820
  C        13.4468199801       -0.5698271671       17.0931516703
  H        14.9678465348        0.8748754722       15.7207712806
  H        16.9283561948        1.8880152897       14.3681085979
  H        11.3471200940        1.5553093058       15.5809644068
  H        11.1313574346        2.5019485402       17.8656788982
  H        12.4873177467        1.3379239239       19.8097743593
  H        14.0093948291       -0.6445318075       19.1508507427
  H        13.9778433199       -1.4463906337       16.9058454308
  C        11.8434559915       -1.0661157944       12.5102767499
  C        10.7963740415       -1.6803033698       11.8870887856
  C         9.7166048884       -2.2987960698       12.5547677004
  C         9.7388296596       -2.4308890289       14.0059564471
  C        10.7943000797       -1.8440211783       14.7435677111
  C        13.9280877281        0.1262729301       12.5025293568
  C        12.8222104671       -0.3336689291       11.7857908129
  C        12.8194573742        0.0685408826       10.2780308798
  C        12.0507964433        1.0921067888        9.7976939254
  C        12.1324672357        1.5862774104        8.4828802619
  C        13.0197433456        1.0190645559        7.6176840037
  C        13.7828940091       -0.0841263104        8.0783893594
  C        13.6299360682       -0.6393623453        9.3352968281
  H        14.2195487269       -1.5248225057        9.6843653113
  H        14.3642045359       -0.7267920169        7.3634234882
  H        13.1425428238        1.3429054257        6.6111965546
  H        11.5161386217        2.4396169886        8.1433471533
  H        11.3555703802        1.5856377917       10.4445366668
  C        15.0230753332        0.7502071236       11.8627824251
  C        16.0356769033        1.3984278456       12.5163607565
  H        16.9203376111        1.8056798156       12.0187788874
  H        15.1155088924        0.7147516936       10.7669982491
  C        11.0585089681       -2.2934833027       16.1592844355
  C        11.9729954951       -3.3172034363       16.4047915677
  C        12.0023007487       -3.9979046431       17.6195275267
  C        11.0527974223       -3.7056736089       18.5994737426
  C        10.1148487660       -2.6642065632       18.3766560882
  C        10.1863905288       -1.9377144736       17.1983590153
  H         9.5820117900       -0.9970856306       17.1715928306
  H         9.4352576346       -2.4949406723       19.2366159108
  H        11.1200139967       -4.0872736981       19.6108653707
  H        12.8654000095       -4.6312603786       17.7257358896
  H        12.6436522513       -3.6804959003       15.5932203708
  C         8.7387307701       -3.2364737862       14.6596383276
  C         7.7069978781       -3.8139182732       13.9411787820
  C         7.6314663198       -3.6193708322       12.5622314707
  C         8.6227927966       -2.9297756922       11.8771112571
  H         8.4883365225       -2.7493009593       10.7804320268
  H         6.7941863502       -4.0364886592       11.9595131412
  H         7.0544010118       -4.5227471037       14.4387347010
  H         8.9346368421       -3.4241496633       15.7051065825
  C        10.7831601117       -2.0072623182       10.4345832925
  C        11.6319338423       -3.0420206250        9.9174504082
  C        11.6308520766       -3.5064821249        8.6036197195
  C        10.8094577583       -2.8164906159        7.7073257589
  C        10.0626287869       -1.6401289886        8.1211374793
  C        10.0529896812       -1.2580628934        9.4823463269
  H         9.4979373203       -0.4388882169        9.9326337810
  H         9.4513907389       -1.0988637822        7.4394880058
  H        10.7386169856       -2.9901907119        6.6458986675
  H        12.2756912434       -4.2746612155        8.1281286283
  H        12.3540016384       -3.4082555183       10.6320836187
