140

  C        10.7429726753        7.2084662972        1.6952631390
  C         9.8879352110        8.1071248594        2.3755672004
  C         8.8530480469        8.7494753128        1.6813424223
  C         7.8487805198        9.5279104083        2.2730688796
  C         6.8490941839       10.1190235666        1.5501638176
  C        10.0136299915        8.5000861165        3.8334714995
  C        10.4831016715        9.7641314666        4.1964046716
  C        10.5370644935       10.0621651636        5.5707847426
  C         9.9297353206        9.2254474801        6.5244152862
  C         9.2355152740        8.0658650494        6.1178253819
  C         9.2934401199        7.7603066243        4.7879411811
  H         7.9342806729        9.5496052845        3.3898290968
  H         5.9619241518       10.6005743667        1.9598165396
  H        10.8842969012       10.4361622090        3.4867922948
  H        11.0322203893       10.9988983248        5.9394943722
  H        10.1115120042        9.2760383289        7.5967443032
  H         8.6313780645        7.4485022561        6.7277125581
  H         8.7880034548        6.9115222257        4.4396676107
  C        10.7875232694        7.1601512004        0.2192645548
  C        11.7557553916        6.3139768043       -0.5152202940
  C        12.9032204201        5.9057530496        0.1711512085
  C        12.8806350537        5.9727059190        1.6270866570
  C        11.7597181662        6.4172840187        2.3239863409
  C         8.9137505216        8.6444903201        0.1605554510
  C         9.8450891766        7.9120067797       -0.4760048562
  C        10.1495076940        8.1999898688       -1.9229816858
  C        11.2063393310        9.1397814423       -2.1581020105
  C        11.3530633966        9.8174787668       -3.3604663825
  C        10.4372833653        9.4830158592       -4.4153464341
  C         9.3907255790        8.5854184902       -4.1881920693
  C         9.2682449708        7.8769023080       -2.9590601058
  H         8.5008179220        7.1261624785       -2.7707956793
  H         8.7948259725        8.2443904217       -4.9920180637
  H        10.5892045513        9.9929900584       -5.4323640720
  H        12.1854411162       10.5674186297       -3.4483365359
  H        11.8392065040        9.3336635698       -1.3085655826
  C         7.8318624162        9.2760938791       -0.5552008789
  C         6.8218334291        9.9375537623        0.1002460406
  H         5.9905761080       10.2753232934       -0.3571065752
  H         7.7333296325        9.1966643912       -1.6600815206
  C        11.6578025057        6.0572567613        3.7606206705
  C        10.8537938445        4.9350845638        4.2169120285
  C        10.7971634802        4.6187169526        5.6059239724
  C        11.5851584677        5.3136875754        6.4871201078
  C        12.4118903627        6.3672334002        6.0720101641
  C        12.3435119473        6.7320880786        4.7485236670
  H        12.9724717384        7.5224342480        4.3621809905
  H        12.8472235697        6.9859932475        6.7949135900
  H        11.5441247589        5.1220397013        7.5463756611
  H        10.0632791854        3.8183919846        5.8739898444
  H        10.2261183527        4.5020282194        3.4804302873
  C        14.0341519829        5.4836262958        2.3339011554
  C        15.1097328549        4.9642403448        1.6792130037
  C        15.1223581907        4.9933566059        0.2891317126
  C        14.1228699405        5.4989299118       -0.4275884357
  H        14.2500093801        5.6712457052       -1.4721833723
  H        16.0702275805        4.7540054263       -0.1764034096
  H        15.9962683513        4.5222682531        2.1001478744
  H        14.0297078524        5.4163086416        3.4345534185
  C        11.6311260985        6.0058513669       -2.0004299774
  C        10.8391085293        4.9715277584       -2.5492768994
  C        10.8581236584        4.7076106567       -3.8930024271
  C        11.8434114741        5.2307068673       -4.7449679554
  C        12.7241991847        6.1562296058       -4.2376595455
  C        12.5205280546        6.5730093888       -2.9205370741
  H        13.1528212181        7.4103653359       -2.4901852666
  H        13.4251156134        6.6879638721       -4.8410295111
  H        11.8168539138        4.9670076443       -5.7838845139
  H        10.1604505670        4.0007702210       -4.3126527624
  H        10.1131600500        4.4317728736       -1.9597233618
  C        18.1523819753        7.2492751211        1.5478509900
  C        17.0790416519        7.9674737600        2.2676158584
  C        15.9251413129        8.4073919218        1.4980552160
  C        14.8011212394        9.0115123073        2.1552655899
  C        13.9022309262        9.7852569856        1.5061418221
  C        17.2017998713        8.3950857993        3.6692906944
  C        18.0488991048        9.4196913567        4.0039574677
  C        18.4429527859        9.8482770415        5.2875815107
  C        17.7948740765        9.2291021541        6.3872379525
  C        16.7381808001        8.3593455396        6.0807980645
  C        16.4828952431        7.9177627574        4.7577547837
  H        14.7079524365        8.9457458958        3.2310018733
  H        13.1522546896       10.3786172543        2.1385211926
  H        18.6388825078        9.8273678752        3.2360717969
  H        19.2187879304       10.6370809215        5.3763027335
  H        18.1520671218        9.4342494958        7.3960194905
  H        16.0886369922        7.9294963772        6.8666111401
  H        15.6956997988        7.2019695996        4.5405611924
  C        18.1950450892        7.3745781551        0.0570107681
  C        19.3536339829        6.7717694742       -0.6315983547
  C        20.4064541463        6.1978408356        0.0984340608
  C        20.2887125376        6.0710126696        1.5019286291
  C        19.1947890693        6.5923292826        2.2488236045
  C        15.9446804963        8.4271714685        0.0451303209
  C        17.1186636852        7.9761891529       -0.5903880596
  C        17.1724319467        8.3779807288       -2.0246192670
  C        18.0860247351        9.3140887104       -2.4750096514
  C        18.1850297222        9.7483310442       -3.8244094956
  C        17.1323620900        9.3043490158       -4.6743515580
  C        16.1719958889        8.4357937119       -4.1770966472
  C        16.1839350381        7.9453475504       -2.8883967132
  H        15.4269235177        7.1892425424       -2.6415903116
  H        15.2502530563        8.2995214436       -4.7667535543
  H        17.0857068693        9.6448273290       -5.6814639425
  H        18.9125761531       10.4915588316       -4.1976918554
  H        18.8011934457        9.6352471908       -1.7468408787
  C        14.9142886502        9.2363532781       -0.6452642910
  C        14.0300596694        9.9679666717        0.0658865898
  H        13.6056673685       10.8984796714       -0.3654273127
  H        14.9749297663        9.3780814834       -1.7441812032
  C        19.0307780781        6.2405360662        3.7632066495
  C        18.2111013797        5.2194678244        4.2690767731
  C        18.2859587918        4.8867619632        5.6532287345
  C        19.2865169498        5.4602132695        6.4859979856
  C        20.0995631428        6.4773550000        6.0371464650
  C        19.8869668758        6.9076925103        4.7007847798
  H        20.5740198043        7.7598672883        4.4870847317
  H        20.8316587171        6.9105212214        6.7422508419
  H        19.4119302094        4.9503097791        7.4559564095
  H        17.5543976645        4.1752985753        6.0411129753
  H        17.3790987574        4.7080846051        3.7683879779
  C        21.3695700938        5.4306122598        2.2271216290
  C        22.3969567619        4.8564873260        1.5418688965
  C        22.5115793386        4.9549589322        0.1245700564
  C        21.5771287715        5.6504251972       -0.5608738059
  H        21.6344288496        5.6143980113       -1.6161514024
  H        23.4648513189        4.6311791600       -0.3216691931
  H        23.2304555556        4.4214127393        2.0847299081
  H        21.2458228650        5.4762514592        3.3152013849
  C        19.2766288532        6.5632533921       -2.1042108519
  C        18.3357021640        5.6196906577       -2.6171919015
  C        18.3594614563        5.1138763398       -3.9726850701
  C        19.3399647007        5.6576568392       -4.7946487173
  C        20.2752887195        6.6183646906       -4.3545399499
  C        20.2188298205        6.9956906798       -3.0053818266
  H        20.7611705187        7.8462638935       -2.6326285258
  H        20.9046060593        7.0662222972       -5.0899094328
  H        19.3859637781        5.3318818428       -5.8358140995
  H        17.5581526738        4.4580097948       -4.3323472397
  H        17.5862147447        5.1984006448       -1.9261162415
