140

  C        10.7777001167        7.1956101364        0.9315093715
  C         9.7494226304        7.8167803753        1.6312680032
  C         8.5588493051        8.3168797477        0.9944541662
  C         7.4165375892        8.8054489763        1.7075878502
  C         6.3780203585        9.2992419929        1.0461777097
  C         9.7758112446        8.1430941230        3.1151239411
  C        10.5965025416        9.1429375335        3.4195377519
  C        10.6209900894        9.7094490922        4.7065363269
  C         9.8662767970        9.0920498511        5.6856470062
  C         8.8712023624        8.1480280502        5.3985216122
  C         8.8336246695        7.6321636095        4.0429219409
  H         7.3313474636        8.7967268123        2.8222598773
  H         5.4502397218        9.5624311913        1.5078160210
  H        11.0511639173        9.6991470081        2.5997680162
  H        11.3540404937       10.4878126508        4.8234024178
  H        10.0773557199        9.4103705115        6.7355089844
  H         8.2242412285        7.8722438112        6.1494325754
  H         8.0423401055        6.9621276604        3.7687465129
  C        10.7997305804        7.3369593292       -0.5580989469
  C        11.7686311122        6.4891747977       -1.2379021521
  C        12.8142583997        5.9251157086       -0.4837172764
  C        12.7873712912        5.8943880632        1.0003265351
  C        11.7310786634        6.4817830820        1.6569990939
  C         8.5730310635        8.4969832327       -0.4439311489
  C         9.6847797297        7.9605865619       -1.2109599049
  C         9.7550517269        8.2347249899       -2.6201468799
  C        10.7175058696        9.1637620566       -3.0396718165
  C        10.8132726217        9.6277427763       -4.3451107342
  C         9.9368065450        9.1091870927       -5.3550444075
  C         8.9512709914        8.1577733456       -4.9605257693
  C         8.8715135089        7.7418693332       -3.6117311280
  H         8.0197304002        7.1295489373       -3.3110923719
  H         8.1510817291        7.9108170500       -5.6952686901
  H         9.8858062321        9.6154411535       -6.3438358916
  H        11.5060759382       10.4700138364       -4.5247775490
  H        11.3485643579        9.5421912238       -2.2187469317
  C         7.5311555308        9.2854559708       -1.0417793924
  C         6.3779201237        9.6403236184       -0.3165744166
  H         5.3799638796       10.0706786837       -0.7003464216
  H         7.4399275181        9.5900112352       -2.0885391504
  C        11.4211303594        6.0664159824        3.0574379625
  C        10.5101965107        5.0117875803        3.2798922565
  C        10.4474705005        4.4469898501        4.5738185563
  C        11.2047150230        4.9135316716        5.6106743616
  C        12.0451003723        5.9973851455        5.3955602758
  C        12.1384014842        6.5509974396        4.1676500086
  H        12.7920365790        7.3958282785        4.0584703165
  H        12.7211557045        6.3610471894        6.1664273920
  H        11.0902585945        4.4790780961        6.5709432065
  H         9.6658291005        3.6991894084        4.6626260950
  H         9.8804313846        4.5857122439        2.4966768951
  C        13.7146194435        5.0418652469        1.7480714598
  C        14.7269388713        4.4101752787        1.0237257997
  C        14.8731417023        4.5922521236       -0.3903494677
  C        13.9357216994        5.2577142667       -1.1080689462
  H        14.1081674524        5.3069855239       -2.1647491950
  H        15.7222817339        4.2431265146       -0.9797554940
  H        15.5124933766        3.9241539730        1.5437937721
  H        13.7155423529        4.8195043387        2.8011591132
  C        11.7475155828        6.0661488282       -2.6483644487
  C        10.9843419173        4.9434843005       -3.0192554157
  C        10.7348469261        4.6336361550       -4.3429018345
  C        11.2593114061        5.4310322202       -5.3515519977
  C        12.1431049834        6.4737341380       -5.0574977738
  C        12.3922407447        6.7749750667       -3.6698297831
  H        13.0138357947        7.7225303852       -3.4776945223
  H        12.6319250239        7.0702393463       -5.8220341047
  H        11.0276423652        5.2219266336       -6.3623081476
  H        10.1202707276        3.8053633204       -4.7078414258
  H        10.5548434076        4.3017320208       -2.2756565811
  C        17.8911903738        7.1979117487        0.9345373017
  C        16.7825442896        7.8855966314        1.5743593992
  C        15.7173713465        8.4967996233        0.8714017583
  C        14.7788459226        9.2897399984        1.4783035822
  C        13.8164969181       10.0040574971        0.7913036336
  C        16.7804888772        8.2752724551        3.0636921513
  C        17.5089417151        9.3172667043        3.5735356643
  C        17.5896646077        9.5855951180        4.9559959335
  C        16.6940049256        8.9822530537        5.8488907268
  C        15.9231228228        7.9469681056        5.3353875343
  C        15.8463144255        7.6887544567        3.9216051564
  H        14.8469666388        9.3961854145        2.5836505716
  H        13.1752974255       10.7183404248        1.2976506453
  H        18.2218779493        9.8641916128        2.9806927363
  H        18.2428198554       10.4366505037        5.2149007628
  H        16.7363092997        9.2194712011        6.9082051482
  H        15.2433691868        7.4843002201        6.0425747354
  H        15.2122177562        6.8917906401        3.5242460759
  C        17.9862945442        7.2821652798       -0.5451778217
  C        19.0036276293        6.5653793064       -1.1627015517
  C        20.0814483262        6.0398939366       -0.4181246802
  C        20.0134872066        6.0176044418        1.0156366594
  C        18.8854048087        6.5300317534        1.6751235057
  C        15.8072317263        8.6041403605       -0.6027353478
  C        16.9899238548        8.0750205090       -1.2181912747
  C        17.0853551031        8.4379028885       -2.7093432221
  C        17.9093155575        9.4607722662       -3.2420510605
  C        17.7930403148        9.7095421748       -4.6412345092
  C        16.8562577083        8.9807374827       -5.4709283227
  C        16.1455803212        7.9339704420       -4.9151545131
  C        16.1554439909        7.7342865327       -3.5358199448
  H        15.7578919266        6.8348745792       -3.0523793783
  H        15.6539830744        7.2827718693       -5.5643686072
  H        16.8821275976        9.1600610902       -6.5708455633
  H        18.3476698856       10.4859272714       -5.1890444855
  H        18.6849773717        9.8280540794       -2.5894243828
  C        14.7620851458        9.2970190197       -1.2788941680
  C        13.7412565975        9.9140960107       -0.6367032152
  H        13.0440034097       10.5100502269       -1.2839740235
  H        14.7641386037        9.3376660349       -2.3874996480
  C        18.6891239283        6.0386842996        3.0634215787
  C        17.9137685926        4.8716000052        3.2610291601
  C        17.8408549002        4.3424306116        4.5451332544
  C        18.5899476509        4.8890441326        5.5989056625
  C        19.3483316477        6.0416892016        5.3653743705
  C        19.3425951994        6.6924520647        4.1005548129
  H        19.7055880733        7.6665891299        3.9812928203
  H        20.0042446413        6.3277522803        6.1768407061
  H        18.6606686457        4.3933155775        6.5715199060
  H        17.2914164180        3.4267263233        4.7108242822
  H        17.3793811014        4.2909351872        2.5497798274
  C        21.0735237209        5.4523805867        1.6743492261
  C        22.1629377124        4.9820416340        1.0330439950
  C        22.1981154241        4.8868255233       -0.3888192844
  C        21.1715946772        5.4351929668       -1.0621430765
  H        21.1898407890        5.5273163777       -2.1640066621
  H        23.0183749666        4.3286417886       -0.8227012515
  H        22.9394497219        4.5057990861        1.6412608311
  H        21.0299754799        5.4243707727        2.7549413246
  C        19.0546288195        6.2085669986       -2.6314861277
  C        18.2110357014        5.1733516642       -3.0014740261
  C        18.1857072039        4.7006047866       -4.3216843445
  C        19.0538848709        5.1796093489       -5.2456490020
  C        19.9146369699        6.2456895854       -4.8813782576
  C        19.8833541535        6.7598463378       -3.6321920806
  H        20.5880150583        7.5602228523       -3.3105594791
  H        20.6153855081        6.5855740570       -5.5931242091
  H        19.1142439399        4.8257051915       -6.2942755945
  H        17.4333506129        3.9870570160       -4.7547727101
  H        17.4226568828        4.7997355447       -2.3777872998
