140

  C        11.0216612387        7.1254093992        1.6188598847
  C         9.8929159790        7.7972370582        2.3196383925
  C         8.7456571117        8.2015830299        1.5839954849
  C         7.6621542536        8.8309780828        2.2532416829
  C         6.5672813401        9.3492905994        1.5862685673
  C        10.0230954842        8.2478619810        3.7301853941
  C        10.8813091457        9.3280903154        3.9704006503
  C        11.1099637629        9.8315002386        5.2085328011
  C        10.4002227365        9.2747984327        6.3261023591
  C         9.5286059967        8.1826886990        6.0939314035
  C         9.4403031095        7.6158528563        4.8035846094
  H         7.6802492270        8.8446836878        3.3326924975
  H         5.7101773068        9.8326379384        2.0715871442
  H        11.4434856689        9.8842384584        3.2057783414
  H        11.8042780821       10.6678062531        5.3415523904
  H        10.5903473812        9.5886328601        7.3713320170
  H         8.9318266898        7.7310331727        7.0180291788
  H         8.7926049390        6.7483286425        4.6584085716
  C        11.0126223023        7.1445552663        0.1191744565
  C        12.1084519277        6.4843491986       -0.5299129208
  C        13.2018733801        6.0003284724        0.2023325304
  C        13.2175379593        6.0655864066        1.6767469410
  C        12.1002650570        6.5187806411        2.3146174739
  C         8.8205570054        8.3571780988        0.1336140148
  C        10.0005985759        7.9336835323       -0.5472467852
  C         9.9700032035        8.2430934655       -1.9990109793
  C        10.5264968200        9.4838522568       -2.4001682096
  C        10.4873816799        9.9457546197       -3.7419965381
  C         9.7711657314        9.1893240992       -4.7005822557
  C         9.2372678085        7.9980510111       -4.3103015892
  C         9.3007361308        7.5059933586       -2.9934729133
  H         8.7640267842        6.5330807773       -2.7564345210
  H         8.6334655225        7.3547644467       -4.9227967760
  H         9.6149290780        9.5010959981       -5.7964910937
  H        10.9142548463       10.9123784340       -3.8810517016
  H        11.0946308297       10.0031433471       -1.6318217000
  C         7.6227067336        8.8011807768       -0.5244704532
  C         6.5338019988        9.3447212431        0.1354246611
  H         5.7100892316        9.7104804188       -0.4390447909
  H         7.5877321415        8.9051111469       -1.6385456386
  C        12.0439858280        6.1995873714        3.7476269743
  C        11.2252893864        5.1993014820        4.2833096423
  C        11.4472927429        4.6805257501        5.5579637455
  C        12.1985590459        5.4493328809        6.5028879470
  C        12.9264002728        6.5887963453        6.0483530786
  C        12.9040683172        6.8823394393        4.6699791273
  H        13.5396854098        7.6165313594        4.1752633127
  H        13.6078954589        7.1673337050        6.7093061868
  H        12.3825277624        5.0058666825        7.4925581630
  H        10.7661430869        3.9437201925        5.9280414972
  H        10.5392040461        4.5710691619        3.6924683886
  C        14.3600529527        5.5637815947        2.3568404676
  C        15.3693967823        4.9356345446        1.7775365701
  C        15.3589388379        4.9385242187        0.3810602511
  C        14.3505588944        5.4159259505       -0.4013699955
  H        14.3582621937        5.3289727380       -1.4886697627
  H        16.2352516081        4.5210354962       -0.1132395802
  H        16.2167383320        4.5927872407        2.4104942246
  H        14.3273368732        5.5883989735        3.4497708996
  C        12.0017884939        6.0798479216       -1.9911248074
  C        11.2781040236        4.9567715586       -2.4015157087
  C        11.2470172237        4.5885649019       -3.7788876069
  C        11.8839410372        5.3325296745       -4.7524070558
  C        12.5875306648        6.4290958659       -4.3285336873
  C        12.5819987148        6.8319756007       -2.9964101221
  H        13.1743048392        7.7255412152       -2.8276968256
  H        13.1671403820        7.0623673083       -4.9760329864
  H        11.9078537162        5.0071514478       -5.7937893327
  H        10.5964223096        3.7013718501       -4.0117407369
  H        10.9432029761        4.2829316412       -1.6409060879
  C        18.4162869356        7.2490961345        2.0193442188
  C        17.4529338084        8.0638722060        2.7590002089
  C        16.2590250980        8.4845351317        2.0740955950
  C        15.1186950860        9.1181252589        2.8403452456
  C        14.0488390074        9.5994542601        2.1688121582
  C        17.5901916616        8.3752993290        4.2182193958
  C        18.4660864281        9.4097633410        4.6260829656
  C        18.4852127755        9.9526934927        5.9648928217
  C        17.6281609462        9.4060368261        6.8904960227
  C        16.6596983731        8.4168634949        6.4628461067
  C        16.6602691651        7.9057863948        5.1702147954
  H        15.2326923061        9.2221706562        3.9248541955
  H        13.3650461334       10.2480812301        2.7415917168
  H        19.2324099693        9.9227578838        4.0014377224
  H        19.2124659763       10.7170936602        6.1183170669
  H        17.5661180511        9.8299142204        7.9162874200
  H        15.9604746015        8.0165169266        7.2164669541
  H        15.9914385822        7.0874542570        4.9855415946
  C        18.3759497683        7.3305993036        0.5200011670
  C        19.3706645230        6.6022363948       -0.2439762857
  C        20.3868778582        5.8907796608        0.4094748243
  C        20.4073015492        5.8455754122        1.8390912286
  C        19.3929936846        6.4500495378        2.6342200549
  C        16.1629138283        8.4383114616        0.6387274452
  C        17.2037851961        7.9950024792       -0.0993623400
  C        17.2081602883        8.3079510100       -1.5674520679
  C        17.9467599891        9.4576410525       -1.9973467985
  C        18.1119411613        9.7250267541       -3.3760768626
  C        17.3369947186        9.0514407151       -4.3163256245
  C        16.5240445295        8.0369999158       -3.8312297136
  C        16.4276469362        7.6535976995       -2.5184993507
  H        15.7810875920        6.8718986976       -2.1923982537
  H        15.8380930279        7.5335274451       -4.5641919635
  H        17.2052197661        9.3385403832       -5.2687959999
  H        18.7948544173       10.5170859845       -3.6115471181
  H        18.5439054274       10.0508937501       -1.2874231785
  C        14.9021409083        8.9800203937        0.0048042731
  C        13.9236821300        9.5402326037        0.8038040723
  H        13.0295621138        9.7998168457        0.2913271671
  H        14.8669454076        8.8336837540       -1.0917571366
  C        19.2996344705        6.0973625430        4.1106168815
  C        18.4523306743        5.0364830630        4.5723415869
  C        18.7936181077        4.4485506317        5.7852827411
  C        19.6629584685        5.0281848096        6.6752147099
  C        20.1383185044        6.2615461928        6.3463354029
  C        20.1088227130        6.7110235956        5.0819782323
  H        20.5941872241        7.6241081663        4.8119885194
  H        20.6831216211        6.8679381402        7.0385744317
  H        19.8226846597        4.5779157884        7.6298680977
  H        18.2527332490        3.5420160136        6.0235050114
  H        17.6576278737        4.6955264344        3.9214435978
  C        21.4523175147        5.0726516819        2.4794323824
  C        22.3912297213        4.4321623394        1.7070700203
  C        22.3343559464        4.4342827693        0.3344286088
  C        21.3689289242        5.1434486188       -0.3228392137
  H        21.2919018204        5.1461653642       -1.4450193886
  H        23.0492517506        4.0029601214       -0.2983329976
  H        23.1733003486        3.8664518022        2.2606898714
  H        21.4898551889        5.1370168532        3.5679895265
  C        19.1257220247        6.2624750870       -1.7225077830
  C        18.4032080897        5.0734872611       -2.0569638076
  C        18.3314189233        4.7376273256       -3.4327112452
  C        19.1119020713        5.4260056069       -4.3830628281
  C        19.8664856370        6.5266987839       -4.0272069858
  C        19.9381571329        6.8900709372       -2.7018262993
  H        20.4880864493        7.8102185040       -2.4543832825
  H        20.3667470141        7.0315253814       -4.8694681957
  H        19.0680292482        5.0545619844       -5.3770043293
  H        17.7478094553        3.9300445655       -3.7878159621
  H        17.8240250692        4.6068217097       -1.2840159919
