140

  C        11.6589782644        6.1051944563        0.4475285821
  C        10.7367249925        6.9559519743        1.1036059100
  C         9.7260319471        7.6098012483        0.3290678623
  C         8.6641087271        8.3771372391        1.0253251845
  C         7.6647897874        8.8789845077        0.3491389296
  C        10.8166318897        7.2430930704        2.6404516238
  C        11.8986203405        7.9563932161        3.1577406056
  C        11.7802905241        8.3380724189        4.5308296333
  C        10.8180438027        7.9639413669        5.3779071678
  C         9.7736491747        7.1365947166        4.8422245809
  C         9.7766274837        6.7971521138        3.4804813441
  H         8.7272767315        8.4384054855        2.1196938840
  H         6.8348733411        9.2959412389        0.8318540414
  H        12.7181566353        8.2612980363        2.5719354716
  H        12.6762214025        8.9173390297        4.8075279538
  H        10.6211692906        8.1943513411        6.4619177460
  H         8.9992357646        6.8069384319        5.4905307097
  H         8.9270237998        6.2097836588        3.2748710397
  C        11.7432056764        6.0317922399       -1.0311081944
  C        12.8587641285        5.3310691907       -1.6792616426
  C        13.8403065364        4.6643363787       -0.9271471715
  C        13.6052046618        4.5278583993        0.4850389000
  C        12.5337841748        5.1769305164        1.1381759537
  C         9.7561736922        7.4821052963       -1.0974260966
  C        10.8384873572        6.8499224159       -1.7819539932
  C        10.9523214392        7.2233764046       -3.2996406347
  C        11.8563376853        8.2485073402       -3.6748371009
  C        11.9840857063        8.7160836963       -4.9470310163
  C        11.1423843298        8.1720439204       -5.9221829872
  C        10.1898918596        7.1437761298       -5.6589796485
  C        10.0807347741        6.6920061757       -4.2926079001
  H         9.4790209645        5.8411941023       -4.0590879919
  H         9.5960225291        6.8152871581       -6.4987422850
  H        11.1681766123        8.4517454622       -6.9351551976
  H        12.7336110608        9.4203491352       -5.2267413050
  H        12.5794174527        8.6004188302       -2.9726762915
  C         8.6450277708        8.1301654925       -1.7960938492
  C         7.6540816571        8.7677973901       -1.0750502392
  H         6.7533755713        9.1042639989       -1.5996610576
  H         8.7869283775        8.2169688153       -2.8852730083
  C        12.4308249401        4.8436567809        2.5835370780
  C        11.6608812939        3.7825486572        3.0165410897
  C        11.5680591912        3.3371720971        4.3154824704
  C        12.4121873198        3.9210593418        5.3326155944
  C        13.4121467158        4.9415335365        4.9020600473
  C        13.2964585318        5.4193234914        3.5686140936
  H        13.9147717152        6.2531205937        3.2193384763
  H        14.1353120489        5.4057230257        5.5988479933
  H        12.3499798805        3.6215625616        6.3274887909
  H        10.9190456325        2.4874888402        4.6862835305
  H        11.0497748280        3.3232121327        2.2250406644
  C        14.5759932388        3.7322905899        1.2575058619
  C        15.6114434701        3.1610551974        0.6116329013
  C        15.8142493451        3.3384459454       -0.8093869081
  C        14.9776454168        4.1179437602       -1.5330961879
  H        15.0488784903        4.2044805125       -2.5973375361
  H        16.6254638172        2.7624190441       -1.3676960554
  H        16.2354512475        2.4395718566        1.1417730320
  H        14.3255993097        3.6228028548        2.2882939577
  C        12.6688427172        5.0086255503       -3.1618898429
  C        11.8261493818        3.9565174513       -3.4269029988
  C        11.6915911051        3.3920249094       -4.7387035223
  C        12.4578900641        3.8417510412       -5.7545170056
  C        13.3195514036        4.9844675483       -5.5829108557
  C        13.4183469959        5.5305558923       -4.2479999149
  H        13.9531666293        6.4020501273       -4.0988808848
  H        13.9183253207        5.4481530504       -6.3887294926
  H        12.3366506610        3.4680972389       -6.7959376334
  H        11.0669546400        2.5788635454       -4.8943190131
  H        11.3825962901        3.4164276310       -2.6089923728
  C        19.2035948276        6.0824110220        0.3392316374
  C        18.1878289139        6.7123902773        1.0667856845
  C        17.1186705669        7.3080492365        0.3724257192
  C        16.0237473160        7.9179650961        1.1240765865
  C        14.9183018419        8.3951198798        0.4970308273
  C        18.2283107497        7.0660915942        2.5288354331
  C        18.8070655940        8.3112996927        2.8259025780
  C        18.8408469468        8.7388096656        4.1522048797
  C        18.2180868651        8.0627627847        5.1827370168
  C        17.5078164859        6.8943856082        4.8159252349
  C        17.4818451778        6.3757896595        3.5134229543
  H        16.0927534031        7.8075826076        2.1948292521
  H        14.1083866510        8.8754378243        1.0658908472
  H        19.1607617760        8.9464994707        2.0154971663
  H        19.2298301000        9.7155607607        4.2855999076
  H        18.2703367071        8.3471337059        6.2408825573
  H        16.7720661115        6.4147269085        5.5206311656
  H        16.8478939171        5.5258929480        3.3713247129
  C        19.1844297124        6.1975651905       -1.1187649456
  C        20.2128954652        5.5066397815       -1.8245158337
  C        21.2893557821        4.8856890837       -1.2078483682
  C        21.2692931048        4.7785662559        0.2422669334
  C        20.2130640276        5.3257363109        1.0245925960
  C        17.0727955076        7.4029831619       -1.0686416770
  C        18.1731235531        6.9647158056       -1.7540242184
  C        18.2233802357        7.2519822820       -3.2238019339
  C        18.8812393082        8.3000830567       -3.8461944739
  C        18.8707699427        8.5859571752       -5.2601051201
  C        18.0769696593        7.7848131908       -6.0961165207
  C        17.3451132923        6.7448279677       -5.4645472955
  C        17.4067447456        6.4984943584       -4.0779375598
  H        16.8704238762        5.6635895123       -3.6781860649
  H        16.6784052084        6.1402076300       -6.0678491978
  H        18.0072929899        7.8575239909       -7.1969060354
  H        19.4717916303        9.4083964153       -5.6534461445
  H        19.5013487671        9.0016328794       -3.1643077934
  C        15.8609807938        7.9028258808       -1.6863585976
  C        14.7757416083        8.3203527491       -0.9413562026
  H        13.8879576511        8.7321579727       -1.4065954376
  H        15.8149128964        7.8931846324       -2.7705876795
  C        20.0161228777        4.7438601954        2.3764463387
  C        18.9630895052        3.8292283446        2.6617438787
  C        18.6827408059        3.3821642060        3.9328623877
  C        19.5733780346        3.7368158064        4.9200368887
  C        20.7076455845        4.5054561503        4.6312579549
  C        20.8652595284        5.0686291010        3.4126000404
  H        21.6784451659        5.6809403408        3.2379013417
  H        21.4641496438        4.6661276108        5.4146840755
  H        19.4001259052        3.4286043931        5.9763960025
  H        17.7681089508        2.9034024053        4.1110006686
  H        18.1755928691        3.5924255867        1.9278009370
  C        22.3224260201        4.0150016251        0.8613594549
  C        23.3552923692        3.4997157574        0.1611612292
  C        23.4260198508        3.5764611978       -1.2877351859
  C        22.3737250212        4.2243835764       -1.9121331195
  H        22.3316162539        4.2391163431       -2.9817397915
  H        24.2935367749        3.1513632886       -1.8294389160
  H        24.0316374185        2.8361914827        0.7174606092
  H        22.2568491275        3.8456999121        1.8923643442
  C        20.1410251625        5.1468497769       -3.2508936218
  C        19.5525951326        3.9389287233       -3.6087226279
  C        19.7036068027        3.3897808034       -4.8823167129
  C        20.3234513188        4.1599634560       -5.8725084127
  C        20.8557827887        5.3881805675       -5.5208433599
  C        20.7685226142        5.9014670043       -4.2420742750
  H        21.2348837378        6.8657382461       -4.0294610431
  H        21.3186365966        6.0203644561       -6.2049752393
  H        20.4908049754        3.7088149053       -6.8536088218
  H        19.1377059123        2.5088965687       -5.2344278033
  H        18.9635034942        3.4253934749       -2.9038482876
