140

  C        11.4512671189        6.7507854819        0.6724282000
  C        10.3955559563        7.4998715966        1.3411973527
  C         9.2695571471        7.8803303752        0.5882283775
  C         8.1791956661        8.5818939890        1.2546088026
  C         7.0749829061        9.0370526641        0.6097510196
  C        10.3823107057        7.9024015556        2.7623347944
  C        11.0636131053        9.0747135826        3.1860669567
  C        10.9890488075        9.4558787376        4.4921568100
  C        10.2107259801        8.7951628101        5.4224691867
  C         9.5417697212        7.5685003037        5.0660926196
  C         9.5962985801        7.1707782532        3.7263980011
  H         8.1378911263        8.7584847352        2.3240383345
  H         6.2239906083        9.5094400240        1.1098352647
  H        11.5642617435        9.6970820250        2.3519924297
  H        11.4387889455       10.3902223944        4.7674663793
  H         9.9858485651        9.2236689010        6.4055857665
  H         8.9521369961        7.0566594424        5.7669621564
  H         9.0273648425        6.3846663722        3.3125063711
  C        11.5165593670        6.7467958521       -0.7955501946
  C        12.5883734810        6.0220281900       -1.4866534449
  C        13.6406307426        5.3573626250       -0.7551907983
  C        13.4395898119        5.3666520289        0.6871250457
  C        12.4362257692        6.0693012322        1.4155334141
  C         9.1944019941        7.6412672453       -0.8349668990
  C        10.3853634209        7.2378537358       -1.5490029162
  C        10.4418103870        7.5340251205       -2.9681746380
  C        11.1528970194        8.6539555575       -3.4261170550
  C        11.0522679508        9.1112077500       -4.7395597821
  C        10.3480203862        8.3533299695       -5.7216496101
  C         9.6045964331        7.2897362749       -5.2499781814
  C         9.5990180273        6.8909870847       -3.9410600620
  H         8.8443429884        6.1573016800       -3.5529091521
  H         8.9931717468        6.7707096749       -6.0281994392
  H        10.4251602816        8.6863194865       -6.7413982845
  H        11.6531069819        9.9263541963       -5.0264590642
  H        11.7925380652        9.2029389925       -2.7249237011
  C         8.0006445064        8.1512942337       -1.4497044067
  C         6.9764487361        8.7591677094       -0.7740172388
  H         6.1181173422        9.1873529406       -1.2765345282
  H         7.8070998891        7.9955290714       -2.4680054976
  C        12.3904047617        5.8565784757        2.8989521025
  C        11.6790078618        4.7606555838        3.5335677436
  C        11.8875159736        4.4574196075        4.9243196264
  C        12.7696361259        5.2258396360        5.6781662346
  C        13.3180705747        6.3859704490        5.1052979029
  C        13.0725162738        6.7385395143        3.7702819032
  H        13.4859714835        7.6977603412        3.4029734977
  H        13.8794478187        7.1282332826        5.6818668784
  H        12.8943824788        4.9858116401        6.7355123820
  H        11.3978234390        3.5262077563        5.3264173770
  H        11.1921515985        3.9171554828        2.9629809951
  C        14.4495467803        4.6675291467        1.4705007944
  C        15.4345520083        4.0213777289        0.9205511384
  C        15.5997097271        3.9474826754       -0.4916244303
  C        14.7242413175        4.6227502283       -1.2532870100
  H        14.8288411444        4.5802243246       -2.3089369152
  H        16.2509179431        3.1173508638       -0.7823906408
  H        16.1840688377        3.4324192481        1.5321491500
  H        14.3783207676        4.7525043192        2.5749485849
  C        12.6964655067        5.7306365794       -2.9625223520
  C        11.9688653004        4.5974517305       -3.4382262716
  C        12.0192781066        4.2255346323       -4.7724966538
  C        12.8340032120        4.9373497234       -5.6603694090
  C        13.5482995311        6.0595317242       -5.1713604040
  C        13.4663080927        6.5112914816       -3.8959874364
  H        14.0821049794        7.3429627153       -3.5479091205
  H        14.1096388625        6.7583342949       -5.7733652375
  H        13.0533141182        4.7472639220       -6.7791562075
  H        11.4672776553        3.4066844107       -5.0721830812
  H        11.4523525472        3.9222445791       -2.7422337206
  C        18.7250604213        6.5263568801        0.9310794986
  C        17.6914112734        7.2297505606        1.5669145136
  C        16.6579347383        7.8820286633        0.8213957797
  C        15.6096780535        8.6071046227        1.4466686493
  C        14.5615755563        9.1917921878        0.7551496580
  C        17.7203953392        7.4679136128        3.0897504540
  C        18.5143519990        8.5193504055        3.5179741529
  C        18.4831666873        8.8840110108        4.8397500138
  C        17.6363046448        8.2073380596        5.7473320573
  C        16.8250482112        7.1623860053        5.2638131722
  C        16.8090641837        6.7648357306        3.8866128120
  H        15.5666199756        8.6402261343        2.5565460023
  H        13.8252690075        9.8479936552        1.2395385620
  H        19.0584892512        9.0882510464        2.7595265266
  H        19.0919132736        9.7061467888        5.2194684318
  H        17.6825994096        8.3059187611        6.8057539960
  H        16.0649574250        6.7438852221        5.8984107734
  H        16.1469182148        6.0346538976        3.4316157463
  C        18.7672858480        6.4991691621       -0.5513114755
  C        19.8076047916        5.8370804298       -1.2243513623
  C        20.9049950053        5.3082389954       -0.5947726734
  C        20.8552462807        5.2937792974        0.9084407017
  C        19.7357820979        5.7959134731        1.6815914024
  C        16.6831214426        7.7986027099       -0.6333897757
  C        17.7738127766        7.1844755076       -1.2929898599
  C        17.9310125832        7.7020778500       -2.7306395125
  C        18.5734894901        8.8851437983       -2.9760039385
  C        18.5950620258        9.4278958296       -4.2692945066
  C        17.9545451315        8.7895605837       -5.2897123457
  C        17.1563068507        7.6404493399       -5.0410454530
  C        17.1234341742        7.1531695768       -3.7466160255
  H        16.5484511526        6.2318519405       -3.4070906358
  H        16.4808144335        7.2890225771       -5.7492580526
  H        18.1242387114        9.2671454794       -6.2940294360
  H        19.2289578421       10.2780611428       -4.5023255597
  H        19.2874263938        9.3037111390       -2.2337908654
  C        15.5931038825        8.3550861045       -1.3125976408
  C        14.5827869088        9.0583680750       -0.6300045106
  H        13.8406266930        9.4418032128       -1.3577842026
  H        15.5171396060        8.2994019611       -2.4046974859
  C        19.5749958208        5.4499709085        3.1407506079
  C        18.6493333829        4.4161111181        3.6269837103
  C        18.6831953943        4.0524143328        4.9613749594
  C        19.6140184994        4.6224248502        5.8762384164
  C        20.4493655098        5.6564595369        5.4368784161
  C        20.4274263929        6.0210262166        4.0677501241
  H        21.1450988940        6.7115836912        3.6648389332
  H        21.0352437081        6.1036762079        6.2288408367
  H        19.5839004020        4.3706889150        6.9022862195
  H        18.0994357025        3.2191586787        5.2097940897
  H        17.9922267787        3.8644907265        2.9432287462
  C        21.9734764666        4.6293623520        1.5295109917
  C        22.9490360169        3.9511078229        0.8240656639
  C        22.8664009900        3.8578700150       -0.6114763143
  C        21.8876586300        4.5083370388       -1.3026808543
  H        21.9034414970        4.4343404437       -2.3645822543
  H        23.5124965348        3.1466653056       -1.1068752951
  H        23.7614959529        3.5686080232        1.4573641157
  H        22.0088018985        4.5253800484        2.5886364565
  C        19.6194888525        5.3748761546       -2.6425881228
  C        18.7636195531        4.3329202765       -2.9499146005
  C        18.6448466207        3.9097313434       -4.2425355381
  C        19.3150465340        4.5354085262       -5.2675699488
  C        20.2377663291        5.5442644456       -5.0076474927
  C        20.3813341082        5.9784488300       -3.7003317432
  H        21.0532614971        6.7660795681       -3.4372650225
  H        20.7572997833        6.0454155228       -5.7814726868
  H        19.0900626938        4.1936053081       -6.3031665635
  H        17.9199132044        3.1695181381       -4.5229377787
  H        18.1318617119        3.8340032508       -2.2187286637
