140

  C        11.1120795711        7.1689399852        0.7670770645
  C         9.9520668033        7.6987255197        1.4685535433
  C         8.9167372062        8.2707172247        0.6987370960
  C         7.7339300080        8.6628859662        1.3378884054
  C         6.6848244889        9.3588249312        0.7696409746
  C        10.0123192486        8.1833596863        2.8418595432
  C        10.5373220012        9.4891067729        3.1362216445
  C        10.5331318965       10.0189777873        4.4758737442
  C         9.9571801994        9.2609719839        5.5147622666
  C         9.2505501879        8.1444067061        5.1843563323
  C         9.2849628528        7.6227349310        3.8549047882
  H         7.7174395633        8.4790263770        2.4042052563
  H         5.8066530160        9.8235646261        1.1518989511
  H        11.0932359603       10.1272593288        2.3349918850
  H        11.0704344282       10.9014009346        4.6151453195
  H         9.9312488333        9.4876978122        6.5352664824
  H         8.6410774772        7.5614421722        5.8458512717
  H         8.8794208174        6.5614528313        3.7079373252
  C        11.0793344065        7.1661405541       -0.7698582002
  C        12.0276201421        6.3508351460       -1.4948907607
  C        13.1958726908        5.9061427884       -0.8035351303
  C        13.2026394257        6.0078624263        0.6950550398
  C        12.1333261298        6.5177367453        1.4753101673
  C         8.9746062050        8.4837557497       -0.7365694988
  C        10.0364424017        7.7990990760       -1.4721132110
  C         9.9408187371        7.9434880991       -2.9733391309
  C        10.6876697927        8.9589166468       -3.5375809606
  C        10.6639930602        9.1915689055       -4.8728299007
  C         9.7285099511        8.5319875780       -5.7325414895
  C         8.8521730525        7.6308805993       -5.1158256421
  C         8.9970838206        7.2197562055       -3.7468074354
  H         8.2938869308        6.5573486980       -3.2933231043
  H         8.0255744642        7.1842394083       -5.6664703675
  H         9.5362920341        8.9115634100       -6.7372875317
  H        11.3569681296        9.9624756689       -5.3307437726
  H        11.3906646872        9.5801290403       -2.9965564055
  C         7.9256731248        9.1745233926       -1.3887630860
  C         6.8435758912        9.6868568200       -0.6453530139
  H         6.1326205151       10.2822847050       -1.2356374321
  H         8.0198287993        9.2665588328       -2.4402712943
  C        12.0585670595        6.0977363389        2.9019833679
  C        11.3509565210        4.9288080481        3.2478037610
  C        11.4775256443        4.4348194893        4.5163417213
  C        12.3475355660        5.0799723087        5.4728928384
  C        13.0169441069        6.2627747726        5.1505709053
  C        12.8850358925        6.7414506729        3.8368714914
  H        13.4141682524        7.6784433714        3.6168570446
  H        13.6826332562        6.6655995989        5.8983142206
  H        12.2883494969        4.7723847050        6.5331817574
  H        10.9262713924        3.5455940632        4.8052973080
  H        10.7096605376        4.4221151555        2.5407134376
  C        14.2596324167        5.2264691257        1.4172446868
  C        15.3505311677        4.6896530337        0.7363078897
  C        15.4270078162        4.7924773028       -0.6556805514
  C        14.3744038115        5.3396494500       -1.3934752027
  H        14.4451949421        5.3298436094       -2.4617343330
  H        16.2151908892        4.3050721148       -1.2259089033
  H        16.0198144616        4.0293026267        1.3227085433
  H        14.0963728824        5.1388035357        2.4793261316
  C        11.8383340443        5.8701630954       -2.8696092446
  C        11.0788405991        4.7253043360       -3.1458916199
  C        11.1355794973        4.1898166669       -4.4585186477
  C        11.8804596441        4.7175323007       -5.4932753954
  C        12.7106402643        5.8157888967       -5.1641973975
  C        12.7066144512        6.3343357698       -3.8937581944
  H        13.3508026736        7.2364814826       -3.7083800081
  H        13.3312362434        6.2644868048       -5.9313714335
  H        11.9187873483        4.1707133274       -6.4259538752
  H        10.4625312573        3.2921527380       -4.6111125841
  H        10.4478093427        4.2865680402       -2.3914651564
  C        18.0975543709        7.0270614058        0.5036576747
  C        17.0738719917        7.7801869646        1.1323769307
  C        16.0811534343        8.5404592611        0.3822900281
  C        15.0284947254        9.2343473493        1.0785279564
  C        13.9903327958        9.7128813322        0.3620349835
  C        17.0694624340        8.0634124793        2.6406631207
  C        17.9359667815        9.0506478563        3.0486630899
  C        18.0333959834        9.3365770039        4.4049989284
  C        17.0772264211        8.8386646446        5.3119214413
  C        16.1123568541        7.9962968520        4.8458203573
  C        16.1325919896        7.5353731622        3.5351034980
  H        15.0868009418        9.2025399234        2.1652016579
  H        13.2587320545       10.2079476134        0.9399126818
  H        18.6686929768        9.5130793219        2.4105281884
  H        18.8773371082        9.9089380239        4.7904487712
  H        17.0292890828        9.1351128038        6.3561596547
  H        15.3255653652        7.6872881861        5.4834257344
  H        15.3834893678        6.7940628963        3.2162856220
  C        18.1137359606        6.9488855740       -0.9852724426
  C        19.1559163296        6.2355055277       -1.5582559992
  C        20.2753191688        5.7677605825       -0.7868129693
  C        20.2527548821        5.8205218878        0.6239696079
  C        19.0732220564        6.3322683001        1.2459482456
  C        16.1066960347        8.4920446213       -1.0759352003
  C        17.1151888481        7.7591132487       -1.6698738499
  C        17.1971506276        8.0450526363       -3.1624434362
  C        17.9128828464        9.1737027276       -3.6205302813
  C        17.8181270081        9.6472487272       -4.9049408232
  C        16.9279532432        9.0482899648       -5.8921453718
  C        16.1158360182        8.0337136857       -5.3983348870
  C        16.3013115912        7.4387366424       -4.1032352992
  H        15.7298280555        6.5594634211       -3.9353997403
  H        15.3742657248        7.6753201944       -6.0834522888
  H        16.8975685188        9.3943242549       -6.9064918942
  H        18.4936626048       10.4833134900       -5.1877307161
  H        18.5915291098        9.6406366178       -2.8540075349
  C        15.0904097290        9.2427187664       -1.7762323339
  C        13.9578621885        9.6710146113       -1.0921701486
  H        13.1603217484       10.1644786565       -1.6722370461
  H        15.0196241494        9.3350797152       -2.8509230729
  C        18.8375635823        5.9153890831        2.6629942982
  C        17.9504786990        4.8520432399        2.9610050007
  C        17.8550096202        4.2735590107        4.2456831658
  C        18.6868670149        4.7609635523        5.2646530452
  C        19.5019352129        5.8618375496        5.0022022582
  C        19.6355592881        6.3874157097        3.7342003385
  H        20.4137314569        7.0969793967        3.5876481488
  H        20.2374752477        6.2075674367        5.7320113426
  H        18.8809027337        4.2425822468        6.2157941862
  H        17.1766533497        3.4490316119        4.4810849425
  H        17.4215476617        4.3863741243        2.1342195465
  C        21.3863038870        5.2902861964        1.3079521947
  C        22.4627134621        4.6914913622        0.7283868415
  C        22.4431672238        4.5611825688       -0.6754594553
  C        21.3680768217        5.0390181212       -1.3870229255
  H        21.2569822264        4.8138490188       -2.4426917613
  H        23.1174252940        3.9970266350       -1.2979071485
  H        23.2962250982        4.3265827691        1.3436381468
  H        21.3654314813        5.4378210775        2.3700621356
  C        19.1531136171        5.8233436877       -2.9632104317
  C        18.3975480112        4.6728121939       -3.3504644212
  C        18.0779425098        4.4153258141       -4.6698536706
  C        18.4683321657        5.2702467220       -5.6857135086
  C        19.2173988522        6.4227060026       -5.3073092108
  C        19.6029182850        6.6336238319       -3.9614998628
  H        20.2670357301        7.5085544241       -3.7535075232
  H        19.4592511015        7.2096371836       -5.9971882641
  H        18.2046690738        4.9836121554       -6.7006377964
  H        17.4555887737        3.5693552051       -4.8735840217
  H        18.2155765620        3.9945084243       -2.5355752469
