140

  C         1.8979062284        0.8557134085       14.8965367497
  C         2.8993059720        1.5732406088       15.4498116620
  C         3.9331182909        2.2326146435       14.7170893113
  C         4.9158325236        3.0605125583       15.3551118421
  C         5.9059976791        3.6637316381       14.5823653413
  C         2.9264040560        1.8522251037       16.9260741267
  C         2.1449331885        2.9529574796       17.3586090821
  C         1.9678464337        3.2802121594       18.6967656808
  C         2.7526297806        2.6306020181       19.6233955345
  C         3.6862337218        1.6383720399       19.2677581258
  C         3.7421250173        1.2396319524       17.8852893606
  H         4.8608396064        3.3249388370       16.4480547462
  H         6.6897747375        4.2515760327       15.0224528614
  H         1.5279889091        3.5515017678       16.6602073008
  H         1.2272415250        3.9833049418       19.0147954895
  H         2.6788319556        2.8722079078       20.6677968625
  H         4.2844324454        1.2003120711       20.0614828414
  H         4.3972780442        0.5005504651       17.5440582248
  C         1.7550069023        0.9314775040       13.4520182224
  C         0.6178132641        0.2752653460       12.7892707364
  C        -0.4158370123       -0.3019472584       13.5379427922
  C        -0.2447434851       -0.4620315656       15.0222697359
  C         0.8967562504        0.0908546226       15.6047466651
  C         3.8883610866        2.1700308408       13.2411233781
  C         2.6225684966        1.7510452211       12.6696167036
  C         2.4975026287        2.0436796935       11.2054876619
  C         1.7784075138        3.1822764329       10.7966921275
  C         1.7963621911        3.5766918715        9.4651719343
  C         2.7337453015        2.9984710609        8.5892851107
  C         3.3883796491        1.7706748092        8.9503155631
  C         3.2454865633        1.3144557821       10.2315003194
  H         3.7716096946        0.4267835487       10.5877215623
  H         3.9857257005        1.2265130747        8.1868162873
  H         2.8354319113        3.4516495856        7.5783866076
  H         1.2223407442        4.4898982055        9.1449458134
  H         1.0619465554        3.6304715158       11.5633439663
  C         4.9430821292        2.7110586836       12.5514093671
  C         5.9017052022        3.4552993800       13.1866601186
  H         6.6033405010        4.0119877504       12.5030505849
  H         4.8579839618        2.7222747281       11.4717893210
  C         0.9850153163       -0.1110577642       17.1070080529
  C         1.8723618710       -1.0813873317       17.5351630696
  C         1.9457074041       -1.3753199952       18.9647694146
  C         1.1416530991       -0.7188054182       19.9034903784
  C         0.1166340195        0.0402021752       19.4043888906
  C         0.1147419336        0.3784565042       18.0879576027
  H        -0.7107527976        1.0172218083       17.6508135972
  H        -0.5936755596        0.4356116742       20.1322179731
  H         1.2059987000       -0.8593713985       21.0067455097
  H         2.7117019732       -2.1310065626       19.3580177964
  H         2.6159218534       -1.5057953184       16.8957269007
  C        -1.2644942198       -1.2005400680       15.7503535678
  C        -2.3507767158       -1.7927672407       15.1570524861
  C        -2.4399896343       -1.6633435331       13.7780345275
  C        -1.5441991838       -1.0069049220       12.9980100921
  H        -1.6506986278       -0.8542637413       11.9448898652
  H        -3.2698940869       -2.2832906912       13.3555013816
  H        -3.1070725999       -2.2497541811       15.8374615340
  H        -1.1759025785       -1.2942011056       16.8009005858
  C         0.6102218072       -0.1528511312       11.3345373605
  C         1.6161249467       -1.1134484309       11.0060552109
  C         1.6020072052       -1.7233845574        9.7614969149
  C         0.6284693979       -1.2711932888        8.8392442894
  C        -0.3584132934       -0.3211876290        9.1550228689
  C        -0.3834619033        0.2650428175       10.4006021271
  H        -1.0695473960        1.0284766356       10.6845724274
  H        -1.0992760764       -0.2246762714        8.3722019915
  H         0.4861349484       -1.8281545762        7.8901970464
  H         2.3856184035       -2.4808604191        9.5429975289
  H         2.3877542303       -1.4085817162       11.7216366145
  C         8.8229744886        0.9788351034       14.9494413732
  C         9.8257595454        1.6989773770       15.6030098203
  C        10.9140318274        2.3209518088       14.9040085434
  C        11.9379570001        3.0071914022       15.6628586480
  C        12.9114021220        3.6769562053       14.9360254477
  C         9.6426742356        1.9355666614       17.1070392655
  C         8.7447738812        2.9887260497       17.3451894532
  C         8.6662997531        3.5268623121       18.6546868309
  C         9.3068126953        2.9514090093       19.6918106053
  C        10.1699741078        1.7841741119       19.4604570175
  C        10.3274509451        1.3099814294       18.1438627768
  H        11.8771906201        3.0341742812       16.7462060163
  H        13.5885092223        4.2573973669       15.5022819126
  H         8.2200321286        3.4452081552       16.4979446708
  H         8.0745471847        4.4009432815       18.8421022556
  H         9.2720427730        3.4319164303       20.6214439098
  H        10.7828482931        1.4942038230       20.3361992891
  H        10.9886447923        0.5178336476       17.9509193714
  C         8.8599824622        0.9028556138       13.4865416009
  C         7.7784719708        0.2644813418       12.7353401711
  C         6.7153365612       -0.2378662952       13.3834870000
  C         6.6416591400       -0.2681035616       14.8500819795
  C         7.7171809483        0.1981060422       15.6204659824
  C        10.9339192693        2.2192636301       13.4737196819
  C         9.9059340476        1.5703241290       12.8029123984
  C         9.8650914983        1.8956220925       11.3260917331
  C         9.2851868280        3.1328550724       11.0259454685
  C         9.4827000287        3.7818902580        9.7557943324
  C        10.1103711596        3.0721036185        8.7214304011
  C        10.6467200140        1.8229830366        9.0403802321
  C        10.4756902893        1.2669122527       10.2801495644
  H        10.8703455607        0.2919373014       10.4164907200
  H        11.3032945713        1.3058438944        8.3001637423
  H        10.4403372564        3.4631781353        7.7103259988
  H         8.9973238513        4.7837460854        9.6210272189
  H         8.7877767013        3.7269309841       11.7698074969
  C        12.0080041875        2.9273415831       12.7990437742
  C        12.9017669016        3.7112060305       13.5171400942
  H        13.6022190199        4.3158353463       12.9984014958
  H        11.9394152025        3.0186298485       11.7514887494
  C         7.8597933930       -0.2742979452       17.0501183074
  C         8.8352180107       -1.1681838389       17.3862898486
  C         8.8173219605       -1.7560747325       18.6662302350
  C         7.8673143741       -1.3564330002       19.5924043503
  C         6.9516968323       -0.3242248280       19.2746619370
  C         6.9996525547        0.2431582455       18.0088827501
  H         6.4653952925        1.0827955320       17.6751989948
  H         6.3349913344        0.1325071177       20.0501387017
  H         7.9691271551       -1.6559356551       20.6222104642
  H         9.5276296937       -2.4835165814       18.9656455887
  H         9.6415758357       -1.2935957179       16.6997360603
  C         5.5632313961       -0.9736602507       15.4834946121
  C         4.5705460465       -1.5887816109       14.7322734666
  C         4.6634076328       -1.6407656566       13.3406768670
  C         5.5983219782       -0.8053906932       12.7205818779
  H         5.5494787583       -0.6170331866       11.6570485912
  H         3.8162132986       -1.9788703903       12.7451741184
  H         3.7343275348       -2.0760625737       15.2362188017
  H         5.5649232871       -1.1123400338       16.5575039113
  C         7.9559742934       -0.0570998644       11.3246658188
  C         8.6378279502       -1.2085229143       10.9011110968
  C         8.7274401533       -1.6791283166        9.6059771890
  C         8.0415796687       -0.9981371274        8.6304778553
  C         7.2886171812        0.1795644898        8.9755396699
  C         7.1527906414        0.5726433707       10.3147753750
  H         6.4454990311        1.3350591992       10.7340597162
  H         6.6680000377        0.6191243537        8.2140794520
  H         8.1529893091       -1.2377016219        7.5659089702
  H         9.2880954616       -2.5999693547        9.3961791626
  H         9.3138542664       -1.7025904691       11.6092503963
