140

  C         9.8635007117        7.6295285330        1.3642381674
  C         8.8808331665        8.3468546369        2.0627944591
  C         7.7060140208        8.8025440208        1.4020071741
  C         6.6590936483        9.4797528569        2.0687438704
  C         5.6060237634       10.0967151410        1.4032394560
  C         9.0243820682        8.8435465371        3.4953709262
  C         9.6730645711        9.9894449738        3.9688720479
  C         9.6177662344       10.3473198828        5.3442892302
  C         8.7468768446        9.6120666725        6.1509857912
  C         8.0844996269        8.4690301619        5.6577652402
  C         8.2343513396        8.0728517863        4.3464092809
  H         6.5934608987        9.5119120525        3.1599565540
  H         4.8453723818       10.6017895745        1.9838365024
  H        10.3715717326       10.4873462204        3.3477657921
  H        10.2841200392       11.0590786006        5.8288672821
  H         8.6423474623        9.8396669610        7.2096376293
  H         7.4741924009        7.8861715286        6.2948697157
  H         7.9066004360        7.0859412317        4.0360111462
  C         9.8310884326        7.6649425581       -0.1960044033
  C        10.7355734303        6.8992005265       -0.9569054933
  C        11.8270589335        6.2626885970       -0.2721342074
  C        11.8671443281        6.2385090153        1.1832707712
  C        10.7912152400        6.7663101092        2.0094988960
  C         7.6534625972        8.8207018192       -0.0062114644
  C         8.7288221850        8.3274608779       -0.8271386468
  C         8.7880190377        8.7133471961       -2.2633629589
  C         9.5528860065        9.8535900220       -2.7212112984
  C         9.4452351871       10.3452615645       -4.0178942771
  C         8.4793207264        9.7852739342       -4.8320084710
  C         7.8440365062        8.6234443414       -4.4809701071
  C         7.9511950002        8.0686669111       -3.1565135313
  H         7.3592078105        7.2645197973       -2.8056051358
  H         7.1140426079        8.1768911077       -5.1955725990
  H         8.2076740824       10.3388335770       -5.7443327044
  H        10.0485778914       11.1873293462       -4.3538709512
  H        10.2979786095       10.1533012325       -1.9798505097
  C         6.4707770193        9.4534886195       -0.6935914358
  C         5.4513224522       10.0652401315       -0.0240974253
  H         4.5974069958       10.6386101597       -0.4005044855
  H         6.3540929117        9.5231491308       -1.8148121932
  C        10.6957738577        6.2803432178        3.4041285926
  C         9.8026073461        5.3023110388        3.7176077559
  C         9.6700478882        4.7908894348        5.0063799680
  C        10.4029428052        5.3917287882        6.0188756330
  C        11.3178700179        6.4300731216        5.7019662075
  C        11.4988301620        6.9172252581        4.4024455258
  H        12.3446185854        7.5393062946        4.1449233717
  H        11.8040903633        6.9673392571        6.5003286424
  H        10.3552743325        5.0523915327        7.0758176370
  H         8.8880897636        4.0507990064        5.1102674370
  H         9.2313151375        4.7683646211        2.9603385169
  C        13.0743552348        5.7435685212        1.8060815900
  C        14.1388183391        5.2542167143        1.1436783244
  C        14.0845666875        5.2570802533       -0.3022370640
  C        13.0041072033        5.8142340371       -0.9424822857
  H        13.1912746556        5.9131084481       -2.0123627194
  H        14.9221283005        4.8710736375       -0.9442665697
  H        15.0154214809        4.8956489744        1.6867299075
  H        13.0936493445        5.7643613556        2.8529256727
  C        10.6685109219        6.5053898613       -2.4585632239
  C         9.8135178078        5.4170156798       -2.7191485754
  C         9.8413567387        4.9315759503       -4.0770803801
  C        10.6595508759        5.4918569675       -5.0525986168
  C        11.5260905686        6.5777994579       -4.7106416009
  C        11.5149246766        7.0711349487       -3.4414656201
  H        12.3222018832        7.7915144538       -3.0730040302
  H        12.2720373019        6.8916611223       -5.4429556430
  H        10.6964438224        5.0679376426       -6.0705713517
  H         9.1472935195        4.0944025773       -4.2904078595
  H         9.1528555140        5.0275749733       -1.9136144839
  C        16.9237418337        7.8409578947        1.3000344473
  C        15.8376698902        8.5421199061        1.9845459005
  C        14.7741173934        9.1235525903        1.2682219884
  C        13.7436204241        9.9169068693        1.9571260978
  C        12.6367611071       10.3809678932        1.2690856654
  C        15.9548046519        8.9001107279        3.3931457732
  C        16.8606899095        9.9234088206        3.8343437973
  C        16.9353596144       10.3008423131        5.1794741296
  C        16.0442414405        9.7678303834        6.0953248401
  C        15.3251066661        8.6515240000        5.7129102245
  C        15.1526279531        8.3008314155        4.3862161097
  H        13.8270778414       10.0324630501        3.0284804600
  H        11.9052566101       11.0093606812        1.6883942404
  H        17.4428217409       10.4812117405        3.1520937330
  H        17.6837068494       11.0428481041        5.3868513139
  H        15.9950801210       10.0467781523        7.1231986476
  H        14.7129216865        8.2301726149        6.5552030707
  H        14.4511170956        7.5459981911        4.0160795480
  C        16.9474813252        7.8576449505       -0.1815996169
  C        17.9995492693        7.1814773365       -0.8554106890
  C        19.1205431097        6.6646678319       -0.1463534966
  C        19.1433525626        6.6495124348        1.3211082162
  C        18.0486844749        7.3143532685        2.0202245806
  C        14.7481631805        9.0079978257       -0.1631284586
  C        15.8932398509        8.4908621357       -0.8772163115
  C        15.8807559721        8.8241145765       -2.3536367811
  C        16.4604760897       10.0073354292       -2.8254582445
  C        16.3314942224       10.3320111040       -4.1738649862
  C        15.5896166429        9.5032140240       -5.0525705244
  C        14.9732483391        8.3651023711       -4.5241428908
  C        15.0722782004        8.0411237996       -3.1881769597
  H        14.6286502109        7.1271032551       -2.8285825966
  H        14.3301027340        7.7238458507       -5.1305987949
  H        15.5647377363        9.6987167796       -6.0804079241
  H        16.9046123103       11.1618031509       -4.5337594111
  H        17.0530444108       10.5617926567       -2.1005285814
  C        13.6222641930        9.5982323615       -0.7886437515
  C        12.6079146393       10.1939845430       -0.1826431522
  H        11.6698651979       10.4897810304       -0.6807844389
  H        13.6666481007        9.5010372592       -1.8948257051
  C        17.7990758651        6.9262406379        3.4257013290
  C        17.0084489819        5.7881888578        3.6076342927
  C        16.9467253006        5.2165513600        4.9017746929
  C        17.7168384713        5.7303011891        5.9545837023
  C        18.5995838816        6.7906155838        5.7106738367
  C        18.6196900592        7.4296489122        4.4803637009
  H        19.1271585083        8.4168811510        4.3863809807
  H        19.2193551452        7.1846512241        6.4910459846
  H        17.5367229201        5.3015703911        6.9619608304
  H        16.3579023539        4.2908105138        5.0461952242
  H        16.5365862340        5.2881235974        2.7983505845
  C        20.1300942044        5.8794245245        2.0244147795
  C        21.0919633779        5.1857793561        1.3566162967
  C        21.0308053148        5.0319441526       -0.0434398334
  C        20.1192484763        5.8534751944       -0.7652029283
  H        20.1466608334        5.7588042225       -1.8393880797
  H        21.5965150728        4.2536994584       -0.5852190514
  H        21.8064837030        4.6206388665        1.9853843548
  H        20.2459151213        5.8304370726        3.0797722641
  C        18.0402939902        6.8004543716       -2.3480005052
  C        17.1613993906        5.7849368815       -2.7712530307
  C        17.1603941250        5.4405349380       -4.0846741173
  C        18.0707556237        5.9484504207       -5.0221752336
  C        19.0204349882        6.8521626866       -4.5780008718
  C        19.0256585982        7.2956865264       -3.2456554668
  H        19.6625529828        8.0297072353       -2.9256926309
  H        19.7149335267        7.3123774124       -5.2770507837
  H        18.1268164083        5.6615811209       -6.0845768494
  H        16.5035312352        4.6843271737       -4.4376761503
  H        16.5098460573        5.2805124054       -2.0999140080
