140

  C         4.9640020364       -0.2807106807       15.8305285124
  C         6.0445169572        0.2780119235       16.5995468769
  C         7.1696593644        0.8357377259       16.0032880958
  C         8.2539360366        1.4383855734       16.6659813252
  C         9.1613588716        2.2140342689       16.0321139275
  C         5.9165176564        0.5730246547       18.0697232231
  C         5.2735130982        1.7847547314       18.3117641834
  C         5.1076388354        2.4081668276       19.5841650878
  C         5.7667084344        1.7442200941       20.6317086684
  C         6.5367958303        0.5854334237       20.3994646045
  C         6.6178841573        0.0299379955       19.1672303750
  H         8.4085067337        1.2220510101       17.7177099625
  H         9.9192108901        2.7490739979       16.5486138363
  H         4.8411688921        2.2457650099       17.4564394793
  H         4.5924050922        3.3046585755       19.7122206982
  H         5.8022973901        2.1644786883       21.6254923992
  H         6.9456159192        0.1541464875       21.2896994190
  H         7.2255887702       -0.8712133977       18.9755774948
  C         4.9076940164       -0.1576411085       14.3674623729
  C         3.8323581886       -0.7280282032       13.6707190977
  C         2.7067301136       -1.2522941457       14.4114401472
  C         2.6370002600       -1.3045393824       15.8358644675
  C         3.8284713260       -0.9732661052       16.5324194287
  C         7.0973258997        0.9572668934       14.5687803634
  C         5.9935866140        0.5487887487       13.7745884605
  C         6.0237875890        0.9237722569       12.3298871855
  C         5.2280720104        1.9282137949       11.8518915392
  C         5.2067526723        2.3668068167       10.5278986013
  C         5.7937743422        1.5561232994        9.6070676113
  C         6.5178649672        0.4724370464       10.0125401291
  C         6.7152268520        0.1142188707       11.3647515254
  H         7.3300687272       -0.7446527489       11.6551220911
  H         6.9679421262       -0.0919540528        9.1578488352
  H         5.7107761087        1.7820370544        8.5382386418
  H         4.6189659854        3.2908787970       10.3193610697
  H         4.7622314620        2.6523169034       12.5734975154
  C         8.1076638406        1.7375282864       13.8663763710
  C         9.0720493977        2.3383818992       14.5786215686
  H         9.8781825236        2.8974633490       14.1647279673
  H         8.0480887674        1.7720351083       12.8118410514
  C         3.8204519639       -1.1879985411       18.0302201909
  C         4.5365665134       -2.2048096000       18.6400426444
  C         4.2050228539       -2.6269960497       19.9795649844
  C         3.3945819003       -1.8121983763       20.7754887007
  C         2.7854139714       -0.6524541750       20.2288939219
  C         2.9242376563       -0.4661745528       18.8505715283
  H         2.3666380222        0.4055292004       18.4173004895
  H         2.3945042882        0.1611802484       20.8752481374
  H         3.2865767071       -2.0113858782       21.8391444259
  H         4.7899256206       -3.4362991285       20.4010164698
  H         5.2578666944       -2.8504205715       18.0648666731
  C         1.4772313047       -1.8748543332       16.4395530740
  C         0.5365569368       -2.5429117064       15.7098577629
  C         0.5955593298       -2.6071181280       14.3074625195
  C         1.6417113760       -1.9267549290       13.6919656294
  H         1.6390959994       -2.0329598118       12.6109839844
  H        -0.1544990884       -3.1218991560       13.7744411451
  H        -0.2462105526       -3.0613460751       16.2733228484
  H         1.4803912255       -1.9504902197       17.5682682521
  C         3.8617046059       -0.9666232952       12.1816705247
  C         4.3653188469       -2.1653785142       11.7579298875
  C         4.4532025821       -2.5562904921       10.4216086359
  C         3.8892626274       -1.6607028514        9.5024414016
  C         3.3579652570       -0.4779218296        9.9059956523
  C         3.2750014911       -0.1471589716       11.2349182537
  H         2.7973167862        0.7831214093       11.6121732183
  H         2.8929712917        0.1635478542        9.1185925891
  H         3.8899723553       -1.8416247465        8.4663881104
  H         4.8033099867       -3.5576851248       10.1678481111
  H         4.7737936151       -2.8028759799       12.5643090838
  C        12.1788378517       -0.0073170446       16.0220790757
  C        13.1480623248        0.7008608905       16.7358828150
  C        14.1940053371        1.3078345431       16.0277551032
  C        15.3965425065        1.8150710756       16.6469353154
  C        16.4993159014        2.1764984162       15.9513553601
  C        13.0031854308        1.0900236389       18.2084983478
  C        12.1809177579        2.1579466549       18.7430260465
  C        12.2735808716        2.5017420885       20.1302372330
  C        12.9616800021        1.7334849060       21.0289451839
  C        13.5622793451        0.5516738919       20.5565266855
  C        13.7528500901        0.3504307955       19.1821856915
  H        15.4565657572        1.6808146590       17.7227766998
  H        17.3884264365        2.4124227829       16.4979038950
  H        11.6330840076        2.8416454079       18.0771155636
  H        11.7996487153        3.3957422668       20.3759002126
  H        12.9973477708        1.9799662667       22.0917279859
  H        14.0825946078       -0.0627185194       21.2288520262
  H        14.4111224503       -0.4517557676       18.8484422679
  C        12.1627387193       -0.0466511837       14.5434317138
  C        11.1474221615       -0.7551087221       13.8303839838
  C        10.0910798681       -1.3531035380       14.6005548702
  C        10.0886570896       -1.3672093499       16.0286873706
  C        11.1824737630       -0.7777438311       16.7196792944
  C        14.1917952618        1.2760897774       14.5869422585
  C        13.1098356549        0.7566588442       13.8656305225
  C        13.0057434668        1.1587729472       12.3877410108
  C        12.0495830022        2.2138052870       12.1445146664
  C        12.0870991105        2.9295258766       10.9569370409
  C        12.8584122635        2.4479133876        9.9092209675
  C        13.6247085950        1.2712593046       10.0827687475
  C        13.7382090393        0.6466986617       11.2915486049
  H        14.3778019581       -0.2710674244       11.3914910939
  H        14.1276543977        0.8834108568        9.2102006591
  H        12.8477215387        2.8847116939        8.9125444230
  H        11.4410355012        3.8108923455       10.7508037149
  H        11.4939742700        2.5690492362       13.0004806037
  C        15.3486167913        1.8652948439       13.8588918689
  C        16.4408262948        2.2358324041       14.5313317298
  H        17.3968080024        2.6709358317       14.2255530700
  H        15.3860826126        1.8313964745       12.7496521312
  C        11.1864758633       -1.0095322132       18.1667845459
  C        11.6875276062       -2.1815095371       18.6877086033
  C        11.5037999990       -2.4599513821       20.0853254464
  C        10.6986788232       -1.6574561141       20.8814738312
  C        10.1283183089       -0.5096658860       20.2835899732
  C        10.3472214132       -0.1668438758       18.9422927880
  H         9.9855384733        0.7666656569       18.5566669560
  H         9.3913546483        0.0780154745       20.8741358641
  H        10.5343286956       -1.8665888599       21.9237412465
  H        11.9017587409       -3.3575312978       20.5185951360
  H        12.2849167335       -2.8950696508       18.1353934593
  C         9.0550785322       -2.1617000360       16.7144019977
  C         8.0567803195       -2.8006698854       15.9670362399
  C         7.9466833740       -2.6226138953       14.6197038040
  C         8.9663398665       -2.0014859152       13.9009275354
  H         8.9771337766       -1.8942252687       12.8409068980
  H         7.1493909182       -3.2114593821       14.0629766456
  H         7.3311839922       -3.3792570770       16.5882152659
  H         8.9170425489       -2.2293288727       17.7632248946
  C        11.3319809768       -1.0837359480       12.3382155845
  C        12.1698902569       -2.1111743660       11.8207381614
  C        12.2274810081       -2.2824263565       10.4735716995
  C        11.2324109806       -1.8081440786        9.6428570325
  C        10.3192641125       -0.8691228227       10.1431801580
  C        10.3162549687       -0.5346518254       11.4642798809
  H         9.7863835277        0.3499013069       11.8557516874
  H         9.5020848058       -0.4133084059        9.5562043417
  H        11.3662644578       -1.9892274408        8.5705484383
  H        13.0827629313       -2.8525392436       10.0241515242
  H        12.9557718292       -2.5983875045       12.4142535768
