140

  C         2.7821806992        0.4336212616       14.4914375905
  C         3.8399824530        1.2110504690       15.2221007105
  C         4.8434064237        1.8026584964       14.4625223553
  C         5.9778559107        2.4033826246       15.1284424181
  C         7.0260558071        2.9752598430       14.4055079761
  C         3.8177904176        1.5221454354       16.7573816371
  C         2.9167238055        2.4353251966       17.2545906920
  C         2.7228074545        2.7168359925       18.6211423073
  C         3.5428783478        2.0719922296       19.5288389016
  C         4.5202582387        1.1459773787       19.0393519591
  C         4.7481337708        0.9342172022       17.7104833377
  H         6.1346195821        2.4218660226       16.2137776707
  H         7.8931066025        3.4167197202       14.9590158259
  H         2.2776073063        2.9012279138       16.4951921378
  H         2.0712891111        3.5299420838       18.9446934222
  H         3.4042782830        2.3967913432       20.5840646417
  H         5.1856090743        0.5296237044       19.6364003996
  H         5.3968602400        0.1155491529       17.3763506073
  C         2.8508868625        0.4060143214       13.0280044597
  C         1.8651045241       -0.3876726277       12.3668092690
  C         0.7927357392       -0.9360217819       13.0514090278
  C         0.7463101178       -0.8969379443       14.4977534251
  C         1.8328775840       -0.4320609670       15.1902239631
  C         4.8741230798        1.7925601120       13.0325369569
  C         3.7806849656        1.2242795856       12.3356129105
  C         3.5593273489        1.5921803783       10.9434613306
  C         2.5388712651        2.5437940923       10.6085132829
  C         2.5207124999        3.1300127941        9.3472515158
  C         3.4143644043        2.6812072220        8.3166362216
  C         4.3665772561        1.7300438497        8.6232047476
  C         4.5263447372        1.2959890922        9.9389924273
  H         5.2219585865        0.5008433128       10.2360942112
  H         4.9137033941        1.2493395872        7.8485078811
  H         3.2082587902        2.9025973417        7.2820958103
  H         1.7748814633        3.8348843954        8.9255208034
  H         1.7947254711        2.7916753443       11.3595221522
  C         6.0243653635        2.3056627747       12.3676097060
  C         7.0303971063        2.9444141988       13.0248926038
  H         7.9051877797        3.3244597522       12.4747025836
  H         6.0877573192        2.2721864351       11.3041722320
  C         1.8738794820       -0.6308968685       16.6260434344
  C         2.5562679599       -1.7380808390       17.1618550091
  C         2.6274317898       -2.0260887285       18.5341628297
  C         1.8184217731       -1.3049099686       19.3481123698
  C         1.1113553449       -0.2211496118       18.9648099040
  C         1.1314570626        0.1195409592       17.5674816953
  H         0.5150884163        0.9764924664       17.2896330893
  H         0.5535165737        0.4055707200       19.6557934937
  H         1.6443598452       -1.7257002592       20.3408790861
  H         3.1215430174       -2.9185840753       18.9145940484
  H         3.0634088493       -2.3184123494       16.4671477810
  C        -0.3716286389       -1.5394547625       15.2171318916
  C        -1.3737559134       -2.1613472923       14.5068098968
  C        -1.3332675571       -2.1014861512       13.0897236916
  C        -0.3141365756       -1.5723675379       12.3726741408
  H        -0.4540404143       -1.6687513616       11.3170322353
  H        -2.1362212071       -2.4961160952       12.5627292223
  H        -2.2131056546       -2.6668214105       14.9343272802
  H        -0.4282364771       -1.6142148803       16.2776164255
  C         2.0215166155       -0.8921589049       10.8176952533
  C         3.1103912015       -1.7793385815       10.5296096716
  C         3.2390264572       -2.1424627409        9.1809458399
  C         2.2914215534       -1.6801021858        8.2075263177
  C         1.2257323258       -0.8215535164        8.5058042930
  C         1.1533135051       -0.3809780466        9.8236089631
  H         0.3548769506        0.2798039278       10.1405846555
  H         0.5795207160       -0.5870742298        7.7050507522
  H         2.2798999497       -2.0474937331        7.1739223819
  H         4.0215490483       -2.8414425145        8.8035236599
  H         3.6773046976       -2.1248054477       11.4065663827
  C         9.8555899460        0.5369145614       14.7307863812
  C        10.9799460638        1.0943113663       15.3997430259
  C        12.0923546270        1.6115876621       14.6678597475
  C        13.1427897725        2.4269043670       15.2515744149
  C        14.2631030184        2.8565995621       14.5330102280
  C        10.8901133087        1.4409808769       16.8532554107
  C         9.9983826582        2.4435885839       17.2375142501
  C         9.9383985632        3.1137579909       18.4970542505
  C        10.7788058665        2.5732876176       19.4132534827
  C        11.6948345204        1.5458869588       19.1470539053
  C        11.8186336883        1.0755480282       17.8193818283
  H        13.1031547145        2.6959322631       16.3035252919
  H        15.0859791085        3.3319280813       15.1039343048
  H         9.2138758108        2.7821436475       16.5484944165
  H         9.3392772888        3.9945634219       18.6763978313
  H        10.8419335823        2.9667391106       20.4206491341
  H        12.5296866836        1.2601057029       19.8244512415
  H        12.6273535886        0.3980374784       17.5598848088
  C         9.8328727491        0.4410949427       13.2368582286
  C         8.8335578790       -0.2767796999       12.5972638401
  C         7.7915578695       -0.9103568684       13.3509217585
  C         7.7809122160       -0.7509832139       14.7834757948
  C         8.8301753720       -0.2002276104       15.4705975073
  C        12.1193070394        1.5201322401       13.2079211200
  C        10.9690484509        1.0262906354       12.5125858708
  C        10.8518140199        1.3631682226       10.9921963510
  C        10.2889982025        2.5016485847       10.5315398072
  C        10.3307282873        2.8778526543        9.2212689219
  C        10.9934209089        2.1322681480        8.2602328906
  C        11.7642954060        1.0695599319        8.7574848500
  C        11.6160654763        0.5456210570       10.0528700143
  H        12.0923429502       -0.3443749484       10.3584372849
  H        12.4409415251        0.5781627027        8.0577460741
  H        11.1497089523        2.5703131713        7.2418404848
  H         9.9251578918        3.7903688904        8.7938104486
  H         9.7845074462        3.1906815899       11.1472387897
  C        13.2648192924        2.0544621693       12.5031658622
  C        14.3119985858        2.6458911879       13.1221509386
  H        15.2249575085        2.9132178034       12.5476200607
  H        13.3341372289        1.8634524148       11.4317555873
  C         8.8402328035       -0.5878691123       16.8980514096
  C         9.6273123464       -1.6653916787       17.2118445297
  C         9.7634241125       -2.0254973413       18.5707866438
  C         8.9573668762       -1.4563495654       19.5272626902
  C         8.0814134616       -0.4643898851       19.1597750954
  C         8.0720627592        0.0336396578       17.8709532621
  H         7.4626733230        0.9224082205       17.6553167040
  H         7.3894104103       -0.0738636725       19.9117643028
  H         9.0140049566       -1.7745238048       20.5907542258
  H        10.5057954675       -2.8036579946       18.8835055111
  H        10.1971444775       -2.0770374016       16.4164187509
  C         6.7359511794       -1.3923557755       15.5265575246
  C         5.7389574595       -2.0437005925       14.8920927099
  C         5.7609243400       -2.2056075876       13.4579037042
  C         6.7627889241       -1.6793504038       12.6682496569
  H         6.8027661952       -1.9170128636       11.5999997018
  H         5.0447883661       -2.8569071426       13.0136971762
  H         5.0092504834       -2.5672799925       15.4990386304
  H         6.6732466039       -1.3687906433       16.6016087682
  C         8.7835846891       -0.5370824887       11.1215497397
  C         9.4364255628       -1.6733312259       10.6456240935
  C         9.3437296018       -2.1017595781        9.3312433318
  C         8.4761039159       -1.4494748150        8.4107085905
  C         7.7220606143       -0.3532104160        8.9124001644
  C         8.0137903839        0.2009302264       10.1570102961
  H         7.6316626051        1.1563133688       10.3989679134
  H         7.0845202864        0.1584011054        8.2337382816
  H         8.4170361506       -1.7147361520        7.3347823869
  H         9.9665726717       -2.9606555807        9.0454623195
  H        10.1820868129       -2.1779773053       11.2448420316
