140

  C        11.2206270690        6.5072774035        0.5181263121
  C        10.1403662948        7.1596723810        1.1408781706
  C         9.0497369263        7.7138030577        0.4167883596
  C         7.9583939257        8.4473469013        1.0161576481
  C         6.9618914664        8.9407850161        0.2502605955
  C        10.1869963734        7.5342099005        2.5825053528
  C        10.9441472042        8.7025471534        2.9109887519
  C        11.0373046271        9.1179563265        4.2324491654
  C        10.2308621759        8.5318817222        5.2428225239
  C         9.5093285558        7.4022861157        4.9439982717
  C         9.4049470058        6.9505882401        3.5865163910
  H         7.9263623477        8.5618010197        2.1014337860
  H         6.1048538274        9.3839315997        0.7412210887
  H        11.5219271486        9.1493684045        2.0305566074
  H        11.5699331748       10.0266607087        4.2698093322
  H        10.1873914144        9.0039436182        6.2312354851
  H         9.0009736359        6.9144462523        5.7260469688
  H         8.7579000107        6.1782258552        3.4055818682
  C        11.1686664989        6.3985524617       -0.9145397518
  C        12.3031026387        5.7791795623       -1.5715368886
  C        13.4396890477        5.3855226806       -0.8210297074
  C        13.4111291522        5.4746322301        0.6280684711
  C        12.2731000941        5.9541567022        1.2890251498
  C         9.0962911438        7.6677743041       -0.9796827117
  C        10.2323194958        7.0755748467       -1.6629168725
  C        10.2167288794        7.0872723379       -3.1375399702
  C        10.6571254539        8.2637897727       -3.8498453150
  C        10.3314253765        8.6061893557       -5.1412710234
  C         9.5881193905        7.6647227515       -5.8863993449
  C         9.1919067625        6.4641527740       -5.3062726188
  C         9.4474263611        6.2334130983       -3.9035175211
  H         9.0293356245        5.2834642238       -3.4938750305
  H         8.5709475294        5.7937582902       -5.8941084415
  H         9.3638294386        7.9183186831       -6.9121810375
  H        10.7890404494        9.5312437808       -5.4881844324
  H        11.2457694654        8.9446516310       -3.2555856340
  C         8.0287160889        8.3109337444       -1.7244587716
  C         6.9477940131        8.8928617308       -1.1777739170
  H         6.0819499695        9.3603460017       -1.6439055418
  H         8.1789390705        8.4164451988       -2.8310213775
  C        12.2492131065        5.6217370460        2.7418956920
  C        11.7236253194        4.3771191451        3.0443767142
  C        11.8856702833        3.8023304101        4.3045556168
  C        12.5774127204        4.5008556496        5.3153173696
  C        13.2752720785        5.7089530342        4.9888030840
  C        13.0609060548        6.2678674293        3.7364629711
  H        13.4212882355        7.2386945324        3.4660687023
  H        13.8784772363        6.2839995757        5.6720787892
  H        12.7086707710        4.1855843029        6.3735547305
  H        11.5073417679        2.8173505908        4.4503839924
  H        11.1613256342        3.9009210568        2.2267642941
  C        14.5654604423        4.8495723044        1.2910569611
  C        15.6603344046        4.4582611102        0.5797739886
  C        15.7323317758        4.4867217070       -0.8179361713
  C        14.5694901195        4.8993183509       -1.4847107040
  H        14.7339694125        4.9220061410       -2.5879159201
  H        16.6201473027        4.2105482114       -1.2976587172
  H        16.5682085083        4.1525385697        1.1265004061
  H        14.5495238722        4.6781538037        2.3546318909
  C        12.4294738226        5.3706513087       -3.0530363228
  C        11.8852527792        4.1745549451       -3.6079914312
  C        11.9777244685        3.8407650607       -4.9884053210
  C        12.7850797935        4.6371924681       -5.7990479120
  C        13.3215577555        5.8540345126       -5.3286327285
  C        13.1466293308        6.1453722114       -3.9879930110
  H        13.5376807089        7.2378956781       -3.8234045009
  H        13.8350687331        6.5337601268       -5.9570506932
  H        12.8388560541        4.2223362533       -6.8317852277
  H        11.6141211624        2.8318746978       -5.1632429988
  H        11.2362418675        3.5791034721       -2.9482516745
  C        18.6429452213        6.6092087769        0.3111204218
  C        17.5690727506        7.1754013686        1.0591151458
  C        16.3855477657        7.7015623064        0.4478302884
  C        15.3351033668        8.3003559384        1.1797987804
  C        14.2881531968        8.9158215721        0.5724917496
  C        17.7198367585        7.4427822716        2.5834764542
  C        18.4307293908        8.5753881464        3.0286924768
  C        18.3834539262        8.9915794613        4.3684859771
  C        17.5420143206        8.2872109810        5.2473019769
  C        16.8006413158        7.1842035807        4.7728528161
  C        16.9432694844        6.7001051433        3.5072399356
  H        15.3885718019        8.0896536477        2.2265847123
  H        13.4913853500        9.3655498476        1.1178642096
  H        18.9963630361        9.1391020796        2.2901836047
  H        19.0396419526        9.7332300299        4.7830243562
  H        17.4845406794        8.6749001249        6.2595330653
  H        16.1969718503        6.6745784481        5.5297217018
  H        16.3573407457        5.8372232602        3.1339627481
  C        18.5878599982        6.5489258949       -1.1236583112
  C        19.5331751757        5.8152675622       -1.8485840897
  C        20.6509805326        5.2703624645       -1.2322572951
  C        20.7441033024        5.3030800283        0.2278642733
  C        19.6662633709        5.8641267846        0.9584391561
  C        16.4293665255        7.8469644781       -1.0158945762
  C        17.5136951679        7.2913119879       -1.7321516289
  C        17.6552229186        7.6282581705       -3.1780776110
  C        18.6123507032        8.5235587567       -3.6545244147
  C        18.6338662681        8.9288803461       -5.0013684675
  C        17.7038832742        8.4426082182       -5.9011641634
  C        16.6952269572        7.5805992702       -5.4550345601
  C        16.6921535165        7.0955612838       -4.1123522973
  H        15.7557813049        6.6220061238       -3.7740157135
  H        16.0156626642        7.1921026883       -6.1921263522
  H        17.7935085725        8.7035618770       -6.9152910978
  H        19.4368661605        9.5959583146       -5.2709266200
  H        19.3616003015        8.8757761413       -3.0269202536
  C        15.3673837216        8.5649663033       -1.6380936479
  C        14.3807779013        9.0902598122       -0.8255062232
  H        13.5387175841        9.5811396710       -1.3983446011
  H        15.2778619531        8.7995409337       -2.6762142860
  C        19.5262294728        5.5642826685        2.4065376619
  C        18.7971806709        4.3847378647        2.7708750193
  C        18.7891999681        3.9657337029        4.0600074849
  C        19.4833527650        4.6764689471        5.0478684980
  C        20.2541137700        5.7723491789        4.7019045748
  C        20.3215371085        6.1284395319        3.3564198580
  H        20.8540745706        7.0148348245        3.0527118347
  H        20.8412527178        6.2386706427        5.5055462354
  H        19.3873989247        4.3406874438        6.1290530199
  H        18.2964106800        3.1105134252        4.4242865585
  H        18.2941744765        3.8604849997        1.9803118982
  C        21.8087178795        4.6180923763        0.8911825589
  C        22.6949591429        3.8570940116        0.2210213076
  C        22.6159017198        3.8289902841       -1.2276885313
  C        21.6372008528        4.5123827519       -1.9078389247
  H        21.5156812943        4.4141453636       -2.9827089216
  H        23.3532696713        3.2151985119       -1.7595805831
  H        23.5348964178        3.3832604169        0.7447284722
  H        21.7864107657        4.6468711050        1.9958485249
  C        19.3114226477        5.3915490363       -3.3261169877
  C        18.3322366356        4.3943330611       -3.6085645989
  C        18.1325990128        3.8897819633       -4.9280700992
  C        19.0014651288        4.2899737867       -5.9639357311
  C        20.0816683317        5.1912329709       -5.6947340531
  C        20.1566682807        5.7924862842       -4.3977795687
  H        20.8648582556        6.6038280986       -4.2165990290
  H        20.8196108296        5.4598451232       -6.4582018697
  H        18.7989501719        3.8803050320       -6.9535124333
  H        17.3157491407        3.2543903754       -5.0458171387
  H        17.7226404946        3.9778609119       -2.8527417972
