140

  C        12.1166762321        5.9727753924        0.1829522173
  C        11.0799180989        6.6139493609        0.8311101419
  C        10.0663215516        7.2492235527        0.1290179402
  C         9.0231205717        7.8986013515        0.8347696201
  C         7.9822580268        8.4628509411        0.1437223213
  C        11.1510891504        6.8739625629        2.2991351784
  C        12.1390293813        7.7183836895        2.8137747940
  C        11.9725973234        8.1813557339        4.1760361846
  C        10.8924647330        7.7736590333        4.9820924798
  C         9.9989679673        6.7522049098        4.4612788569
  C        10.1308575416        6.4272711526        3.0984888675
  H         8.9671956150        8.0686611200        1.9076317717
  H         7.2769279782        9.0386330637        0.7510449892
  H        12.9827174634        7.9965084702        2.1517772313
  H        12.6224085648        8.9330666277        4.6050362666
  H        10.8595400703        8.1263483944        6.0368981549
  H         9.1561074371        6.3497336896        4.9664231526
  H         9.4095364352        5.7798069626        2.6828580207
  C        12.1672903448        5.9820743782       -1.3070786521
  C        13.1381043189        5.1434892882       -2.0032879978
  C        14.1712223396        4.5403576141       -1.2407734784
  C        14.1814388178        4.6866512305        0.1838949095
  C        13.1945215231        5.3522123071        0.9205013065
  C        10.0330168259        7.2537285243       -1.3056977729
  C        11.1157357838        6.6844362748       -1.9926583019
  C        11.2458693320        7.0862169093       -3.4851094702
  C        12.0578001968        8.1723136382       -3.8839280302
  C        12.0847723543        8.6832522718       -5.2080516917
  C        11.2183338775        8.0074713184       -6.1024427926
  C        10.5365370070        6.8051088532       -5.7909355955
  C        10.4893265251        6.4238571132       -4.4261222948
  H         9.9299126754        5.4880665886       -4.1773142941
  H         9.8932920605        6.4088436352       -6.5417538504
  H        11.0642371843        8.4211649758       -7.1463145815
  H        12.6182216118        9.5957621996       -5.3621106662
  H        12.7219963126        8.6538207696       -3.0808123875
  C         8.9280699919        7.8780804866       -1.9101249612
  C         7.9150474246        8.4772305604       -1.2224218434
  H         7.0588134663        8.9388382081       -1.6719823118
  H         8.8762314159        8.0428131648       -3.0005693827
  C        13.0042213646        4.8800759464        2.3478575006
  C        12.1812183382        3.7855156735        2.3985608093
  C        12.1176837142        3.0292421907        3.5708047653
  C        12.7142865391        3.4788876835        4.7665846008
  C        13.6654739078        4.5375993649        4.6791724980
  C        13.7996260100        5.2673962021        3.4801212834
  H        14.4787298296        6.1205031032        3.3714167348
  H        14.2130939333        4.8971675061        5.5817258564
  H        12.3614353602        2.8942764906        5.5290268471
  H        11.4899388261        2.1689173953        3.8226869367
  H        11.5682119845        3.5100715750        1.5862647393
  C        15.3970626079        4.0542890961        0.8178050331
  C        16.3989618514        3.4595986912        0.1271568084
  C        16.3194346009        3.3386634664       -1.2941463978
  C        15.1863094608        3.7519551944       -1.9512553434
  H        15.1121065258        3.4254889683       -3.0204154032
  H        17.1054041872        2.7480968107       -1.8426202035
  H        17.3075582127        3.1827529528        0.5672174967
  H        15.3757628498        4.1637128796        1.8747866358
  C        13.0538973671        4.7529082991       -3.4512401501
  C        12.4050791258        3.5701325889       -3.7731043168
  C        12.5552679865        2.9884615174       -5.0188655924
  C        13.3345722086        3.6199603068       -5.9876777010
  C        14.0481136855        4.8146766265       -5.7056487365
  C        13.9262185044        5.3475128172       -4.4180714401
  H        14.4898117049        6.2004252205       -4.0620043225
  H        14.5730168531        5.3958438060       -6.4452695859
  H        13.4640961896        3.1571573952       -6.9584704387
  H        11.9538711435        2.1024803827       -5.3142688889
  H        11.6926101345        3.0810620419       -2.9399962467
  C        19.4499836545        5.8489802380        0.2334043799
  C        18.4802834789        6.5175299510        1.0243258906
  C        17.2983137309        7.0325132184        0.4454638411
  C        16.3762351847        7.8655682868        1.2079920533
  C        15.2806712674        8.4873421723        0.5909472302
  C        18.6319902670        6.8951962108        2.5217309580
  C        19.3792702270        7.9733445792        2.9414889929
  C        19.4134419204        8.3023996601        4.3231500146
  C        18.6580762223        7.5242381173        5.2267306130
  C        17.8095266869        6.5437635233        4.7621157152
  C        17.8077823231        6.2274216546        3.3891542847
  H        16.5615447567        7.9961415496        2.2781159036
  H        14.5557410927        9.0804250678        1.1506334624
  H        20.0098657161        8.5662584940        2.2959134419
  H        19.9845839240        9.1112913410        4.7687962179
  H        18.5631680333        7.7128947584        6.2874346051
  H        17.1797287139        6.0255425110        5.4167815010
  H        17.1181099978        5.5196902345        2.9288369565
  C        19.2930459631        5.7745455772       -1.2196897233
  C        20.2614964237        5.1048582415       -1.9954793763
  C        21.4472538718        4.6550420099       -1.3638971241
  C        21.5930509723        4.6923207159        0.0618918702
  C        20.5613357794        5.1835694317        0.8415524534
  C        17.1070466767        7.0036247394       -1.0327247292
  C        18.1944208534        6.4480733225       -1.8013470049
  C        18.2410764967        6.7394356968       -3.2636173995
  C        19.1274555679        7.7724708098       -3.6068309290
  C        19.0874353851        8.3176825515       -4.9251577561
  C        18.2985048091        7.6587302137       -5.9229625180
  C        17.5591621617        6.5282757022       -5.5977195879
  C        17.4230857212        6.1515556266       -4.2164779665
  H        16.7534209719        5.3187901185       -3.8974616811
  H        16.8127253373        6.0476074026       -6.2815968119
  H        18.3862243063        7.9055917434       -6.9673867650
  H        19.4944263902        9.3071800650       -5.1411703001
  H        19.6982204045        8.2938482606       -2.8599405477
  C        16.0467464429        7.7514166928       -1.5835455085
  C        15.1507200421        8.4184474507       -0.8210210419
  H        14.3331428865        8.9874419564       -1.2960717681
  H        15.9051692086        7.8023810560       -2.6435937998
  C        20.5299992799        4.8451619739        2.2856430179
  C        19.7139673773        3.7843109541        2.6917320926
  C        19.7264552251        3.4187476506        4.0510568128
  C        20.6922578953        3.9240170370        4.9236542003
  C        21.5069573212        4.9466279666        4.4960181522
  C        21.4013472335        5.4597440175        3.1960088574
  H        21.9833423398        6.3110516715        2.8957406437
  H        22.3086300651        5.3276390519        5.1797187693
  H        20.6401771182        3.6378234088        5.9822136313
  H        19.1064320736        2.5565832154        4.3613593252
  H        18.8374860578        3.4635650316        2.1007874369
  C        22.6288340556        3.8960973965        0.6219661845
  C        23.4528150700        3.1232036020       -0.1201828218
  C        23.3733037170        3.1184441231       -1.5648354946
  C        22.3677249422        3.8560250263       -2.1392078754
  H        22.3020776810        3.8395116534       -3.2519596075
  H        23.9567056111        2.4659471163       -2.1588440442
  H        24.2088248962        2.4204226676        0.2239653579
  H        22.6443750238        3.9302880922        1.7137447186
  C        20.1698401420        4.7349037186       -3.5091995315
  C        19.3321048212        3.7660775130       -4.0636351108
  C        19.4324970464        3.3405366386       -5.3983417909
  C        20.4846328682        3.8421196737       -6.2057305996
  C        21.3493759649        4.7793785493       -5.6239879709
  C        21.1595502198        5.2959729761       -4.3349543442
  H        21.8411436046        6.0942899012       -4.0058570207
  H        22.2541053108        5.1174359364       -6.2478343287
  H        20.6232133739        3.4356738713       -7.1313376116
  H        18.7882883750        2.5837490609       -5.8218454899
  H        18.5971358283        3.4409600791       -3.4326155289
