140

  C         3.7483073813       -0.0365873104       14.5315444741
  C         4.8132806588        0.5988984978       15.2611517779
  C         5.7842218884        1.2823888359       14.5156567641
  C         6.9194985998        1.7983379101       15.3112098338
  C         7.9193300903        2.4488920350       14.6023551024
  C         4.8833814339        0.8455373331       16.7053417070
  C         4.3535035026        2.0625636981       17.1625141146
  C         4.6118012758        2.5291950073       18.4710606854
  C         5.2421632321        1.7451547025       19.4245985626
  C         5.6278305052        0.4460022276       18.9729570922
  C         5.5102708870        0.0336660919       17.6384239402
  H         6.9592017524        1.7509573810       16.4021946919
  H         8.7062585063        2.9673888079       15.1392321261
  H         3.8942037314        2.7883932159       16.4736705865
  H         4.2550409352        3.5062699896       18.6935743248
  H         5.3137124164        2.1671589633       20.4250476219
  H         6.0607875773       -0.1210504537       19.7562293212
  H         5.9627398959       -0.9009089465       17.3097904709
  C         3.7463811597        0.0824931470       13.0581779496
  C         2.7107660701       -0.5903056664       12.2579628589
  C         1.7107200319       -1.2290510882       12.9207402467
  C         1.6224966545       -1.2109887326       14.3704996039
  C         2.6298080995       -0.6840410639       15.1692485881
  C         5.7231782663        1.4360440817       13.0836178249
  C         4.6771051225        0.9875675818       12.3554579572
  C         4.6278257952        1.3767028142       10.8806503564
  C         3.7909297278        2.3459430666       10.4404266166
  C         3.6922444622        2.7873660905        9.1132807309
  C         4.5587499988        2.2178570903        8.1420227036
  C         5.3365594391        1.1170541492        8.5376129127
  C         5.4449165501        0.7047736757        9.8735133423
  H         6.1153195082       -0.0849731259       10.1689111141
  H         5.9821012955        0.6081290480        7.8417697276
  H         4.5445657826        2.5553142809        7.1048486201
  H         2.9415115925        3.5413109407        8.8089207427
  H         3.1238810031        2.8837576313       11.1620905874
  C         6.7546426345        2.2572201009       12.4869059261
  C         7.8573064702        2.6581183167       13.2245702714
  H         8.5679525565        3.2012013556       12.6731762079
  H         6.5132422872        2.5587010537       11.4582831122
  C         2.6950271643       -0.9247465073       16.6059312092
  C         3.4057065495       -2.0116627527       17.1015231330
  C         3.3997304896       -2.3955522271       18.4443194722
  C         2.6784068721       -1.5602189235       19.3060231632
  C         1.9576938950       -0.4618443409       18.8229029974
  C         1.9595766940       -0.1136622444       17.4859052608
  H         1.4232767504        0.7365478078       17.1346418913
  H         1.5864596620        0.1832215429       19.5753823998
  H         2.6697591511       -1.8266789552       20.3272380787
  H         4.0086812004       -3.2547349497       18.7833154091
  H         4.0603483641       -2.4309204946       16.3037520644
  C         0.3667578660       -1.6268468961       15.0562126220
  C        -0.7002688429       -2.0397730474       14.3313640910
  C        -0.5853623196       -2.1976114125       12.9268321220
  C         0.5688874659       -1.8573092562       12.2771206223
  H         0.6576342806       -2.0911664442       11.2612564186
  H        -1.3996562900       -2.7720010807       12.3507237723
  H        -1.6638334170       -2.3073106567       14.8276841709
  H         0.2789753610       -1.5121052721       16.1994395895
  C         2.7924564915       -0.9043038012       10.8028160652
  C         3.7552517837       -1.8253583677       10.2675182313
  C         3.7366966448       -2.1732476739        8.9223752059
  C         2.8626985792       -1.5325280238        7.9839364290
  C         1.9827226258       -0.6368302899        8.4838838306
  C         1.9935722716       -0.2883099399        9.8612052657
  H         1.2314749796        0.3436065214       10.1700420934
  H         1.4001876887        0.0179441582        7.8242317877
  H         3.0184039534       -1.8623819572        6.9353284329
  H         4.3886377872       -2.9298709602        8.5664810108
  H         4.3699429422       -2.4149208548       10.9660815892
  C        10.6452838056       -0.0699090853       14.9610438239
  C        11.5231437027        0.7146373236       15.6850422901
  C        12.6161386819        1.3586507431       15.0532465892
  C        13.5866040117        2.1258906017       15.7658399150
  C        14.7103586444        2.6087626826       15.0880754069
  C        11.4692656773        0.9258513611       17.2137360816
  C        10.5036018492        1.7971918749       17.6848712429
  C        10.6234855886        2.3460657273       18.9411371270
  C        11.5938581094        1.8070476295       19.8490447137
  C        12.5087680107        0.8927695591       19.3729440772
  C        12.5033589498        0.4284432076       18.0562271645
  H        13.4407953582        2.3899735567       16.7786755343
  H        15.4261385070        3.2177925031       15.6238246499
  H         9.7451342709        2.2059562955       17.0260034683
  H         9.8617226540        3.1095486585       19.2783227643
  H        11.6508642705        2.1417244762       20.9005022299
  H        13.3136217866        0.4985189868       20.0333662077
  H        13.1945429001       -0.3405186716       17.7297567224
  C        10.6591015503        0.0025896268       13.4701098457
  C         9.6683241605       -0.7218788158       12.7332326169
  C         8.6426455547       -1.2752276195       13.4084666955
  C         8.6088463869       -1.3333423906       14.8384974332
  C         9.6893021293       -0.8338981183       15.5723003240
  C        12.7699274425        1.3018389599       13.6431711959
  C        11.7674082557        0.6514212931       12.8654410388
  C        11.8572726617        0.9756302794       11.3824812008
  C        11.1976116522        2.1328176525       10.9194910497
  C        11.3341263312        2.4834954648        9.5914472681
  C        11.9673068928        1.6989718750        8.5837735864
  C        12.5751715264        0.5297368193        9.0752003186
  C        12.6047139172        0.2451439188       10.4175572903
  H        13.1387600162       -0.6299693410       10.7200100765
  H        12.9373472751       -0.2165260079        8.3292136796
  H        11.9204215632        2.0311745365        7.5751774048
  H        10.8724080724        3.4060928833        9.2172637716
  H        10.5691459660        2.6996546640       11.6478090612
  C        13.9343133805        1.8270505606       13.0077848585
  C        14.9240633254        2.4333270661       13.7240465677
  H        15.7928956254        2.8916611146       13.2564265194
  H        14.1477287852        1.7107292740       11.9406083656
  C         9.9131251787       -1.3308226149       16.9895656064
  C        10.8804839505       -2.2529305751       17.3050735203
  C        11.2383106281       -2.5592825659       18.6493216514
  C        10.5413355158       -2.0489197781       19.7509823851
  C         9.4127550578       -1.2674185776       19.4194224151
  C         9.0785593132       -0.8928912977       18.1060069909
  H         8.1915059287       -0.2311734572       17.8685188899
  H         8.6683586403       -0.9861831110       20.1504917182
  H        10.7932569255       -2.3894876618       20.7455972819
  H        12.0832327279       -3.1988407149       18.7784567830
  H        11.4780681345       -2.6401272541       16.4574555654
  C         7.6108178694       -2.1857030543       15.4917784583
  C         6.6733175216       -2.8475591449       14.8167338157
  C         6.6260661450       -2.6882157561       13.4126373628
  C         7.5578095041       -1.9680375248       12.7167904563
  H         7.5236813156       -1.9231064201       11.6565714660
  H         5.7967743468       -3.0825513991       12.8564488735
  H         5.9164162557       -3.4737931744       15.3327750460
  H         7.6044465823       -2.1520770771       16.5657758871
  C         9.6644282640       -1.0091245643       11.2593759853
  C        10.2785074936       -2.1744285198       10.7762347674
  C        10.0483516807       -2.7369458256        9.5431826547
  C         9.4199233106       -1.8745711168        8.6219592832
  C         8.8398248048       -0.6662155761        9.0337327114
  C         8.9872231157       -0.2100580944       10.3395713663
  H         8.5215616983        0.7280794435       10.6886865288
  H         8.2907126826       -0.1763530803        8.2548922212
  H         9.1341101242       -2.2823534192        7.6657436911
  H        10.6202174359       -3.5594142440        9.1245692228
  H        10.9130148651       -2.7160473329       11.4627373614
