140

  C         1.2013352887        1.2604419795       14.8909933327
  C         2.2654279761        1.9522390038       15.5781351506
  C         3.3450421575        2.3977191600       14.8486099401
  C         4.4042127858        3.0423204503       15.5468078422
  C         5.5576848505        3.3990125671       14.9041814172
  C         2.1999065106        2.1982562234       17.1391144275
  C         1.5230011579        3.4124610486       17.5912361394
  C         1.5008670695        3.7672162918       18.9500876700
  C         2.3018509834        3.0480465500       19.8188409577
  C         3.0060164957        1.8869873885       19.3759274573
  C         2.9983938379        1.4796968436       17.9791319965
  H         4.2824208028        3.3020175564       16.5931561546
  H         6.3953432857        3.7078331860       15.4679424350
  H         0.8386529844        3.9633408735       16.9333372524
  H         0.9118889497        4.5866578372       19.2793242674
  H         2.3656711554        3.2747276983       20.8817455521
  H         3.6346877090        1.3492732298       20.0364909179
  H         3.6876294062        0.7153129630       17.6495070235
  C         1.2250042841        1.2782953906       13.3670764765
  C         0.1481248295        0.5666260772       12.6340327483
  C        -0.8864904193        0.0020455957       13.3450268837
  C        -0.9330407067       -0.0156002466       14.8072603937
  C         0.1220073786        0.6608695066       15.5416457158
  C         3.3859356217        2.3256168129       13.3712588283
  C         2.3043332828        1.8542010844       12.6566831758
  C         2.2605107004        2.1690327894       11.1814817908
  C         1.2889789162        3.1805457107       10.7951976880
  C         1.1443656614        3.6020169998        9.5136417359
  C         2.0310474023        3.1069310739        8.4964300216
  C         2.9677067380        2.1455737390        8.8696776451
  C         3.0638106645        1.6695964212       10.1569644683
  H         3.7290729987        0.7958087401       10.2830946087
  H         3.6774822927        1.6351925650        8.1612583649
  H         2.0098119611        3.4262457949        7.4542752711
  H         0.2378628354        4.1795375218        9.2286627539
  H         0.6195565823        3.5435060024       11.5953087775
  C         4.5854836376        2.8068864591       12.7731371356
  C         5.6376880103        3.3808904668       13.5256532532
  H         6.5839268121        3.8169986585       13.2257964680
  H         4.6646178188        2.8531700141       11.7021228808
  C         0.2051874597        0.1382924646       17.0503735407
  C         1.2171448861       -0.6997172534       17.5202956099
  C         1.1928234932       -1.2832816302       18.7603039322
  C         0.3343340450       -0.8832364597       19.7536928249
  C        -0.6038790817        0.1245504866       19.3981946267
  C        -0.6220772058        0.6630106951       18.0479295478
  H        -1.2493424654        1.5096345156       17.8433750708
  H        -1.3633420099        0.5732597207       20.0714987004
  H         0.1962786585       -1.4774609708       20.6686295808
  H         2.0738766866       -1.9415517382       18.9422520192
  H         1.8923672624       -1.0586233182       16.7040878741
  C        -1.9048904680       -0.7619681632       15.5220330264
  C        -2.9484201930       -1.3004330303       14.8243912655
  C        -3.0238039429       -1.2448887781       13.3716007696
  C        -2.0082198074       -0.6256380671       12.6903154166
  H        -2.1379839675       -0.6905575146       11.6038289517
  H        -3.7740001296       -1.8893046908       12.9966677366
  H        -3.7396549711       -1.8870423185       15.3827640620
  H        -2.0243210516       -0.7799775131       16.5791362690
  C         0.1520066602        0.2511025108       11.2251299742
  C         1.0700198505       -0.7103666846       10.7796019385
  C         1.1662086309       -1.0843510736        9.4092718393
  C         0.2410869581       -0.6546099777        8.4971638957
  C        -0.6791604086        0.3289233742        8.9256672268
  C        -0.6214126194        0.8843246082       10.2040661479
  H        -1.2122334819        1.7314818040       10.3974266531
  H        -1.5002517650        0.7071870734        8.2671614100
  H         0.1929046885       -1.0951617314        7.5165687057
  H         1.9578564427       -1.8666213504        9.0700710863
  H         1.7246296641       -1.1197213199       11.5310866781
  C         8.4051900136        1.0562372271       14.9836707632
  C         9.3795437541        1.8634059598       15.5833846663
  C        10.3538820618        2.5860729225       14.8984011309
  C        11.3415423797        3.3418774040       15.5841813340
  C        12.4236826802        3.8194627975       14.8726346563
  C         9.2838907141        2.1827976281       17.0577793174
  C         8.7096333853        3.3374993316       17.5190397654
  C         8.6875270586        3.6648940356       18.8407911684
  C         9.3824612815        2.9436920946       19.8364268223
  C        10.0154812254        1.8042380238       19.3405504142
  C        10.0028876698        1.4480696843       17.9721621276
  H        11.3530415332        3.4599624869       16.6632364819
  H        13.2688313494        4.3940414302       15.2133229389
  H         8.1040328699        4.0146574791       16.8801532656
  H         8.4127706746        4.6427371429       19.1072633941
  H         9.4595451997        3.2658362323       20.8771310391
  H        10.5981700159        1.2458782856       19.9980331277
  H        10.4228615181        0.4586187728       17.6940377292
  C         8.3003368805        1.0726334333       13.4972455205
  C         7.3065993051        0.4055539979       12.8945950049
  C         6.1652146193       -0.0370922578       13.6502238432
  C         6.2685747139       -0.1295012989       15.0453304393
  C         7.3519946720        0.3865489869       15.7304688736
  C        10.3526642130        2.4457721542       13.3807302639
  C         9.3221454072        1.7314718279       12.7462070360
  C         9.3026377998        1.9970985307       11.2817776426
  C         8.4543817855        3.0647817206       10.8817904678
  C         8.5298421366        3.6326168851        9.6144520126
  C         9.4212884694        3.1338369784        8.6719338950
  C        10.2042504417        2.0109781261        8.9632786386
  C        10.1218945755        1.4643383137       10.2783741618
  H        10.7703190041        0.5637313553       10.5144723666
  H        10.8929054021        1.5750856426        8.2594388801
  H         9.4940237884        3.7509709437        7.7279186308
  H         8.0278898436        4.5767684190        9.3452222383
  H         7.6948644875        3.4871914758       11.5522469132
  C        11.5033218166        3.0294875516       12.7204583438
  C        12.3735642090        3.7840321555       13.3951189151
  H        13.1819754661        4.2632318873       12.8817034018
  H        11.5490574783        3.1136419982       11.6774158511
  C         7.4708558377       -0.0644846777       17.1344455554
  C         8.4281865691       -1.0376120642       17.4151181894
  C         8.5609330413       -1.4275637707       18.7584773815
  C         7.8003892313       -0.8663321788       19.7834612813
  C         6.8044044782        0.0406789226       19.4558447305
  C         6.7178795128        0.5427913493       18.1371122149
  H         5.9225756483        1.2792419963       17.8968812444
  H         6.1819473437        0.4976781391       20.1947107483
  H         7.8648690937       -1.1109634750       20.8436878314
  H         9.2086226193       -2.3610218598       18.9423317209
  H         9.1179836522       -1.6031996418       16.7101825217
  C         5.3016317265       -0.8584689674       15.7356046548
  C         4.1953820896       -1.4033488001       15.1158296525
  C         4.0525559834       -1.2679888733       13.7500623353
  C         4.9779831833       -0.6411010347       13.0000580972
  H         4.9752489553       -0.6888033978       11.9129427228
  H         3.2197537320       -1.7802380810       13.3201742037
  H         3.4832707211       -1.9022469758       15.7838891150
  H         5.3925475757       -1.0961640686       16.7930307630
  C         7.2331661014        0.0655333817       11.4362853020
  C         7.8048177223       -1.1918656803       11.0757801118
  C         7.8041118396       -1.6455100342        9.7672433450
  C         7.1672883478       -0.8715260166        8.7797889374
  C         6.5622596399        0.3538308164        9.1084712092
  C         6.6154941134        0.8267777966       10.4525101185
  H         6.1904538142        1.7652687872       10.7045842520
  H         6.1875463163        0.9155006942        8.2023472730
  H         7.2462051437       -1.1444648838        7.7501600267
  H         8.3450117458       -2.5075351777        9.4203684720
  H         8.2901825754       -1.7649444144       11.8339264422
