140

  C         2.9205899687       -0.0342585522       14.8705167969
  C         3.8689515485        0.7047116695       15.6310690625
  C         4.9650246110        1.3242731467       14.9193287939
  C         6.1230526478        1.9077088501       15.5111166883
  C         7.1827701935        2.4173746289       14.7292572299
  C         3.7302870893        1.1916071308       17.0089424709
  C         2.8226002140        2.1752821353       17.3434140521
  C         2.5616683231        2.6445573147       18.6327100553
  C         3.3676886609        2.1414309538       19.6386547775
  C         4.3350612408        1.1160155417       19.3215701764
  C         4.5812122044        0.7421510132       18.0247650148
  H         6.2138958374        1.9373403563       16.6470642910
  H         8.0398960632        2.8486821201       15.2854157537
  H         2.1494404106        2.4947253275       16.5911977457
  H         1.8601770371        3.5036223872       18.6968806335
  H         3.1420208269        2.5451584152       20.6421087774
  H         4.9567695139        0.6731444827       20.1076087591
  H         5.4039745121        0.0780267514       17.8036883608
  C         2.9348762163       -0.0049489558       13.4275523432
  C         1.9179355060       -0.8208943563       12.7252633335
  C         0.7918237420       -1.3802834144       13.3684390155
  C         0.6991046389       -1.2529820482       14.8490474836
  C         1.9116545509       -0.8089833023       15.5155805186
  C         4.9500474181        1.3403861921       13.4423762592
  C         3.8430874261        0.7547554917       12.7429673958
  C         3.7224025011        1.0411480828       11.3284817311
  C         2.6996888023        1.9860624965       10.9639935246
  C         2.6898527257        2.4898403538        9.6468083156
  C         3.5945626552        1.9600274633        8.6367448905
  C         4.4270879990        0.9307147716        8.9668252527
  C         4.5717599621        0.5877953684       10.3233384353
  H         5.3659816687       -0.1232094179       10.6177747226
  H         4.9727795863        0.4614859830        8.1441789139
  H         3.2739975418        2.1911900044        7.6262071493
  H         2.0639276959        3.2729232159        9.2655723095
  H         2.1194339768        2.3193441979       11.8152625213
  C         5.9996089834        1.8944250198       12.7080313459
  C         7.1952470044        2.3785376506       13.3034101427
  H         7.9526591666        2.8622943722       12.7147147864
  H         5.9317144848        1.8872133349       11.6281247761
  C         1.9304402058       -1.0881417279       16.9758721629
  C         2.9036942664       -1.9054433092       17.4286285372
  C         2.9560533472       -2.3068259316       18.7628130872
  C         2.0656873953       -1.7933121660       19.6830199585
  C         1.1104113716       -0.8838816972       19.2098014744
  C         0.9881060236       -0.5564482072       17.8943364921
  H         0.2482600622        0.1063218749       17.4959634980
  H         0.3335884406       -0.4052910377       19.8367939869
  H         2.0780788703       -2.0671760849       20.7395429463
  H         3.7103409811       -3.0444645202       18.9778703773
  H         3.5590857222       -2.4054409480       16.7218224670
  C        -0.3979594312       -1.8696538412       15.5220386173
  C        -1.4571135809       -2.3560898481       14.8119965366
  C        -1.4616726753       -2.2961522625       13.3624850765
  C        -0.3489979121       -1.9581763949       12.6606261809
  H        -0.5093837300       -2.0276313367       11.5634973203
  H        -2.3149111196       -2.7762567464       12.8947357035
  H        -2.3025102779       -2.7676742861       15.3188109396
  H        -0.6302540215       -1.7354700499       16.5803857549
  C         2.0775143770       -1.2605815622       11.2765851711
  C         3.0471671657       -2.2318080087       10.8153159767
  C         3.0025786387       -2.6996376452        9.4802142404
  C         2.0593612652       -2.1291296119        8.5812559632
  C         1.2567190066       -1.0347990994        9.0164865523
  C         1.1923763043       -0.7171295808       10.3581497889
  H         0.4104675994       -0.0162584959       10.5676481767
  H         0.5799367935       -0.5794973156        8.3184000239
  H         2.1247517885       -2.4405400613        7.5817207716
  H         3.7472431380       -3.4316072005        9.1662462095
  H         3.7902186016       -2.4969034891       11.5594492604
  C        10.2933963625        0.4209597048       14.7419403375
  C        11.3012493013        1.2181703205       15.4117065932
  C        12.4334617512        1.5838650623       14.6910027118
  C        13.5536964363        2.1497636027       15.2935672686
  C        14.7139028099        2.3959327546       14.5689328520
  C        11.2078646758        1.6234352897       16.9103787838
  C        10.2557710571        2.5904342721       17.3335894110
  C        10.2804112469        3.0336022069       18.6973582856
  C        11.2163483362        2.4674729937       19.5786937652
  C        12.1707156420        1.5003914859       19.1457069877
  C        12.1357388961        1.0780986434       17.8186816747
  H        13.5164262723        2.5153647360       16.3305043541
  H        15.5556004455        2.8252298325       15.1087578765
  H         9.5571032783        3.0730993941       16.6290504380
  H         9.7062661222        3.9069704815       19.0369164707
  H        11.3007851157        2.7930734470       20.6236144273
  H        12.8315534328        1.0722840625       19.9482233855
  H        12.8757672183        0.4237721353       17.4493682161
  C        10.2125923793        0.3868519860       13.2783450969
  C         9.1406466895       -0.2202530584       12.6345525383
  C         8.1364146899       -0.8821921588       13.3990441697
  C         8.1794967830       -0.9030084043       14.8615546018
  C         9.2899379416       -0.3147179173       15.5300157066
  C        12.4689067597        1.3264453478       13.2047140690
  C        11.2860098696        0.9258387551       12.4973803453
  C        11.2772520060        1.0835960577       10.9875553178
  C        10.7773011698        2.2637407799       10.3897588035
  C        11.0284993307        2.4404606223        9.0082370888
  C        11.7194544769        1.5094398335        8.2608796017
  C        12.2911435830        0.3922986745        8.8954003952
  C        12.0683643502        0.2334871598       10.2404109914
  H        12.6559943308       -0.5198945595       10.7959327426
  H        12.9170349337       -0.3857218268        8.4460879336
  H        11.7916901575        1.7028872461        7.2105829920
  H        10.6607356229        3.3264632467        8.4552330099
  H        10.1759558574        3.0576400132       10.9132491353
  C        13.6479391586        1.7691476396       12.5252521846
  C        14.7718299122        2.1847899163       13.1603503559
  H        15.6392806591        2.4602519979       12.6071453237
  H        13.6396319300        1.6427554331       11.4170551620
  C         9.4144744961       -0.6687170211       17.0538836881
  C        10.0815224651       -1.8480889699       17.3740739202
  C        10.1478039735       -2.2435514979       18.7456732162
  C         9.2933179956       -1.6938732361       19.6970778116
  C         8.4630923534       -0.6298032920       19.2630351528
  C         8.5582337205       -0.0834926720       18.0273484416
  H         7.8802101373        0.7748237367       17.7998767402
  H         7.6743638134       -0.2835051675       19.9080647919
  H         9.1487310957       -2.0808694323       20.6839538682
  H        10.7101877841       -3.0974650323       19.0449913080
  H        10.6176595710       -2.3403776423       16.5486768694
  C         7.1522996627       -1.6913937625       15.5303639082
  C         6.0769102227       -2.2180445012       14.8689837291
  C         5.9427470791       -1.9913065170       13.4700193985
  C         6.9651297507       -1.4369347342       12.7552497376
  H         6.8192252734       -1.4325808702       11.6768893988
  H         5.1541095087       -2.4230721495       12.8227964308
  H         5.3413017627       -2.9522781575       15.2978293137
  H         7.3202300778       -1.9684198948       16.5525213267
  C         9.1065483538       -0.5148619021       11.1397468925
  C         9.7843492264       -1.7114476770       10.7532151171
  C         9.7423859682       -2.1828921558        9.4126079242
  C         8.9896979472       -1.4371702687        8.4795119136
  C         8.3736997034       -0.2498313246        8.8207385457
  C         8.3817259646        0.1666934463       10.1718745803
  H         7.7735323946        1.0704548482       10.3795557100
  H         7.7189295055        0.3014275587        8.1280195716
  H         9.0939259943       -1.6236311307        7.4129679706
  H        10.1502684915       -3.1735031822        9.2239613790
  H        10.4155307212       -2.2607739123       11.4213907754
