140

  C        10.0509621355        7.4055854226        1.1637739775
  C         8.9583223142        8.0770197541        1.8514345107
  C         7.8365829782        8.5734130124        1.0927595140
  C         6.7134312251        9.2098844986        1.7505085110
  C         5.6814976430        9.8088879226        1.0183005776
  C         9.0156176481        8.5783940489        3.2453502835
  C         9.9616694662        9.5417602847        3.6677521114
  C        10.1347841315        9.9015751316        5.0620178032
  C         9.2706554542        9.4026145555        5.9372173739
  C         8.2014911018        8.5469695081        5.5261158591
  C         8.1851056805        8.0823801414        4.2462822440
  H         6.6955747901        9.1298932944        2.7905583849
  H         4.8083731812       10.3216611726        1.4548365688
  H        10.6849770600       10.0842056042        3.0393456309
  H        10.9858170626       10.4903121308        5.2675381931
  H         9.2621827209        9.6742333842        7.0542687895
  H         7.4467657915        8.2260477777        6.2897124559
  H         7.4657716094        7.3104880226        3.8977500397
  C        10.0836367613        7.3588238016       -0.3069400895
  C        11.0706473248        6.6116015526       -0.9913420060
  C        12.1865830207        6.1947174247       -0.2061888101
  C        12.2268303519        6.2921179250        1.3290476597
  C        11.0541927297        6.7874185171        2.0120231417
  C         7.9016489134        8.5587637023       -0.3735554044
  C         9.0548514366        7.9889887183       -1.0001658965
  C         9.1353122072        8.2554662783       -2.4312624702
  C         9.9854342465        9.3252073813       -3.0091833045
  C         9.8730957086        9.6911286334       -4.3590773406
  C         8.8578129183        9.1833733775       -5.1873941132
  C         8.1012963715        8.1433766767       -4.5957886979
  C         8.2214325390        7.6839755316       -3.3133531897
  H         7.5819978882        6.7904895959       -2.9416742987
  H         7.2672714708        7.6602758212       -5.1025865395
  H         8.7561108478        9.3594203774       -6.2749508976
  H        10.4848948602       10.5013368803       -4.8076369682
  H        10.7172832192        9.8773038272       -2.4153965838
  C         6.9101082744        9.3341239790       -1.0887143590
  C         5.8463738320        9.8645947872       -0.3543006838
  H         5.1099529158       10.4499306611       -0.9143620755
  H         6.8453000166        9.5767012068       -2.1101249289
  C        10.9748176885        6.5247592707        3.4814735240
  C        10.2397472040        5.3820638232        3.9158289253
  C        10.4248577543        4.8909400100        5.2511203947
  C        11.3449149544        5.4945606758        6.1039708224
  C        12.0231369031        6.6489844375        5.7181572836
  C        11.9423807895        7.1213419855        4.4062442107
  H        12.2574779953        8.0328233636        4.0026947711
  H        12.7996439432        6.9766276365        6.4138352955
  H        11.4088116421        5.1390971699        7.1431967874
  H         9.7414573241        4.0893921696        5.4933835145
  H         9.4805757281        4.9637429646        3.2786896586
  C        13.3264103295        5.7066804227        1.9294979888
  C        14.3234607712        5.0742766129        1.2339234071
  C        14.3288364625        5.0392073214       -0.1855498823
  C        13.3354732138        5.7134760347       -0.8739880736
  H        13.4541662545        5.6820938524       -1.9596534633
  H        15.1511743679        4.5615324253       -0.6966456496
  H        15.1175297847        4.6622866572        1.8016751195
  H        13.3884644119        5.5335575379        2.9715835744
  C        11.0195629969        6.2853614877       -2.4189143316
  C        10.1309474681        5.2721330916       -2.7927456357
  C         9.9490647262        5.0854004533       -4.1800935189
  C        10.5497849850        5.8825921247       -5.2417773184
  C        11.6413943550        6.6363190897       -4.8642683031
  C        11.7924733563        6.8757763548       -3.4558237257
  H        12.3598327950        7.7260130164       -3.1603982808
  H        12.3277934502        7.1100773684       -5.5954259330
  H        10.1766010562        5.6621626406       -6.2653505020
  H         9.2812522094        4.2394940412       -4.5090615779
  H         9.5761476454        4.6105291886       -2.1252690534
  C        17.3007820787        7.5141527640        1.2177578340
  C        16.3053219295        8.2113865862        1.8869446266
  C        15.2080785451        8.7368173501        1.1319433072
  C        14.1415174529        9.4708335504        1.7877706949
  C        13.0404063834        9.9503346288        1.0933478735
  C        16.4157360951        8.6690941370        3.2768091712
  C        17.2989345036        9.7275812682        3.6870399550
  C        17.2943268132       10.2647163266        4.9700852307
  C        16.4694102720        9.6218863687        5.9451683367
  C        15.5801352539        8.5879031079        5.6712766559
  C        15.6393243776        8.1038592005        4.2914106038
  H        14.2269197379        9.6273082972        2.8392958541
  H        12.2405232355       10.5130851148        1.5658498557
  H        17.9901942290       10.1671466043        3.0225192137
  H        18.0185250542       11.0452315412        5.2557311060
  H        16.4737759117        9.9286745840        7.0067577748
  H        14.9389941870        8.2388755665        6.4648643737
  H        15.0249647392        7.2445966326        4.0322626503
  C        17.3534059675        7.5263242355       -0.2689357690
  C        18.3478500761        6.8271670280       -1.0360822711
  C        19.4442573006        6.2994401810       -0.3009844047
  C        19.4776551296        6.3548528546        1.1495693319
  C        18.4064364537        6.8466049583        1.8938859130
  C        15.1370416342        8.6442954589       -0.2887256911
  C        16.3707728423        8.2517985569       -0.9984869429
  C        16.4310992950        8.5259023987       -2.5042794347
  C        17.1988730491        9.5637969065       -3.0200566025
  C        17.1390873645        9.8878450011       -4.3671605060
  C        16.2531468428        9.2495313566       -5.2273436885
  C        15.4406053826        8.2497094938       -4.6906900444
  C        15.5323289518        7.8945709524       -3.3572882007
  H        14.8919766823        7.0973426283       -2.9573999674
  H        14.6357821212        7.8199127667       -5.2736075640
  H        16.3226695197        9.4254060166       -6.3286412287
  H        17.7972824970       10.6260540872       -4.7985769085
  H        17.9521983623       10.0171175758       -2.4117194896
  C        14.0189852979        9.2114818841       -1.0197798831
  C        12.9731681965        9.7835176889       -0.3124672559
  H        12.0363476834       10.0393844650       -0.9155845315
  H        13.9290670672        9.1917560455       -2.1221806656
  C        18.4143506209        6.5738819363        3.4296641394
  C        17.6966711517        5.4844889717        3.8687393488
  C        17.6835899363        5.1389004755        5.2331856108
  C        18.4951533888        5.7356293015        6.1790738732
  C        19.2847654695        6.8452339136        5.7210936279
  C        19.2481680728        7.2383051920        4.3567977827
  H        19.7077780002        8.1905272493        4.0218501459
  H        20.0204485415        7.3319575120        6.3432072276
  H        18.7421011574        5.3353526175        7.1635032466
  H        17.0665334067        4.3055559708        5.5811926393
  H        17.0558802602        4.8987672975        3.2184889965
  C        20.6310703583        5.8062219020        1.8250937443
  C        21.6782429013        5.2710019123        1.1164116300
  C        21.5946658766        5.1830198489       -0.3062040107
  C        20.5396141758        5.6499435925       -0.9950435417
  H        20.5101303266        5.6826937849       -2.0650490457
  H        22.4142096857        4.7304057828       -0.8855767531
  H        22.4748250279        4.7735519133        1.6275781892
  H        20.7519373409        5.8740475364        2.9161337073
  C        18.1465361575        6.4083666401       -2.4450944161
  C        17.2134862931        5.3935468651       -2.6804300793
  C        16.9889844635        4.9324306880       -4.0195255013
  C        17.6206890253        5.5937267214       -5.0748303579
  C        18.5517861624        6.6110415893       -4.8407106974
  C        18.8074387863        7.0073962044       -3.5479356333
  H        19.5265307683        7.7647598068       -3.3422760739
  H        19.1751754943        7.1910837930       -5.5523192315
  H        17.3925484471        5.4285953282       -6.1044336927
  H        16.3187277979        4.0588790747       -4.1609066198
  H        16.7986419248        4.9510324322       -1.7999080854
