140

  C         4.9784513303       -1.4415997666       13.8381911250
  C         6.0567054199       -0.7741043922       14.5130888682
  C         7.1582685714       -0.2273063777       13.7734882510
  C         8.2026731197        0.3834568949       14.4578263037
  C         9.2850690517        0.9818431340       13.8396734135
  C         6.0941073003       -0.5189701707       16.0338407513
  C         5.2331185885        0.4524654871       16.5024338745
  C         5.3139237606        0.8184918182       17.8558660364
  C         6.3077667642        0.3112519248       18.7128818375
  C         7.0616518815       -0.7969504399       18.2757487747
  C         6.9431434422       -1.1748449064       16.9147216057
  H         8.1904969750        0.4904508711       15.5141268390
  H        10.0241604107        1.5563227531       14.3569375945
  H         4.5188266215        1.1366724137       15.9386385417
  H         4.5573216679        1.5551496769       18.1784546595
  H         6.2598146930        0.5672314381       19.7816246381
  H         7.7681088815       -1.2888761384       18.8955990473
  H         7.5578426673       -1.9682965006       16.6129390116
  C         4.9109628660       -1.2900764445       12.3133757786
  C         3.8522983336       -1.9459192249       11.6255504276
  C         2.8589048520       -2.5388345913       12.3455939788
  C         2.9198651690       -2.6846048523       13.7894025491
  C         4.0144284098       -2.2361209541       14.5212972637
  C         7.0999476957       -0.2358859827       12.3421331046
  C         5.9399518548       -0.5638990754       11.6611818329
  C         6.0286848327       -0.0335420924       10.2352907040
  C         5.1145069133        0.9819131575        9.9507749839
  C         5.1103752569        1.6250653393        8.7014527883
  C         6.0037520880        1.2069059587        7.7206815497
  C         6.7087242645        0.0378678853        7.9005857655
  C         6.7178475860       -0.6083878696        9.1648097784
  H         7.3989465229       -1.4150570379        9.3789955930
  H         7.3284304470       -0.3604483982        7.0607244963
  H         6.0329357878        1.7368195024        6.7584753304
  H         4.3637796598        2.4549952848        8.5661151444
  H         4.3926922653        1.3143549613       10.6705751427
  C         8.2866742110        0.2763345409       11.7705494697
  C         9.3630531123        0.8431099069       12.4502097219
  H        10.2583710051        1.2522869773       11.9804275314
  H         8.4641743359        0.2060102828       10.6904298886
  C         4.0643651896       -2.5673222810       16.0389794082
  C         4.9924483677       -3.4590680295       16.5341277551
  C         4.9856474898       -3.9135645967       17.8279499973
  C         3.9736481142       -3.3948773014       18.6915798431
  C         3.1447404721       -2.3969314843       18.2557497074
  C         3.1620808077       -1.9787434017       16.9170431064
  H         2.6808483385       -1.0940609366       16.5803714571
  H         2.4105613447       -1.9663825883       18.8849345926
  H         3.9205217219       -3.7272989865       19.7382266454
  H         5.5960352182       -4.7505463949       18.1878735881
  H         5.7106960181       -3.9317135666       15.8698863764
  C         1.8558352163       -3.3519887743       14.4326075790
  C         0.8545042682       -3.9814458752       13.7312631571
  C         0.7701932461       -3.8192059193       12.3089129407
  C         1.7371423974       -3.0557772523       11.6454909926
  H         1.6791802627       -2.9369979475       10.5487355807
  H        -0.0465361730       -4.2750824347       11.8159786723
  H         0.1681866783       -4.5670929919       14.3284065302
  H         1.9011710401       -3.4170516838       15.5391194554
  C         3.9372834123       -2.0919854090       10.1397129925
  C         4.7959741101       -3.1038609356        9.5851635117
  C         4.7258868703       -3.2851300094        8.1860504533
  C         3.8679427923       -2.5719545679        7.3562352683
  C         3.1532820690       -1.5205951905        7.9358896813
  C         3.2224518830       -1.2947149050        9.3089421689
  H         2.6497536793       -0.4917271922        9.7526352140
  H         2.5223859414       -0.9657920443        7.3113900753
  H         3.7468043362       -2.7446963801        6.2795213261
  H         5.4910260844       -3.9650264034        7.7379797707
  H         5.5317104970       -3.5398756796       10.2519529734
  C        12.1831677183       -1.2065824485       13.7891612730
  C        13.2022737079       -0.4891404654       14.5142041149
  C        14.2791914260        0.0339696960       13.7381822179
  C        15.3458419710        0.6654524066       14.3866600152
  C        16.3625009373        1.2980544505       13.7045448536
  C        13.1495782029       -0.1429477784       15.9875076776
  C        12.3350753211        0.8425069234       16.4633361449
  C        12.3595516346        1.2046578858       17.7836317177
  C        13.1631214230        0.5357306195       18.7208339206
  C        14.0769021911       -0.4637171935       18.2166678352
  C        14.0421326293       -0.7893233000       16.8474720065
  H        15.3677391612        0.8667711554       15.5035166982
  H        16.9733138493        2.0205195802       14.2301744021
  H        11.7257897323        1.4166578977       15.8286958234
  H        11.7774413695        2.0613941955       18.1563662852
  H        13.2116796287        0.9862902288       19.7370424958
  H        14.6804484694       -1.0435405025       18.9010353172
  H        14.5314910702       -1.6873564537       16.3999195979
  C        12.1389110287       -1.1790840789       12.2983982645
  C        11.1114707868       -1.9307560022       11.6069800956
  C        10.1756803733       -2.6198075958       12.3304640428
  C        10.2642847910       -2.7716219680       13.7692757028
  C        11.2586982150       -2.0815061916       14.4601769191
  C        14.3297867316        0.0089840673       12.2719498392
  C        13.1560841911       -0.4127257332       11.6370234063
  C        13.1212811076       -0.2331496584       10.1749150853
  C        12.3137641909        0.7412952810        9.5161964814
  C        12.3721326527        0.9486241937        8.1122562942
  C        13.3363912369        0.2365645655        7.3631644192
  C        14.1174364833       -0.7367506851        8.0177999563
  C        14.0471831161       -0.9584450362        9.4108010195
  H        14.7855179254       -1.6494747083        9.8672192354
  H        14.7654722264       -1.3971377755        7.4306697308
  H        13.3680978167        0.4180432190        6.2972665490
  H        11.7351838719        1.7511993333        7.6442916437
  H        11.5566576216        1.2245385485       10.1737667011
  C        15.5029250486        0.4435107091       11.6364769228
  C        16.4867922788        1.0935234328       12.2927079835
  H        17.2892906559        1.4940351654       11.7282943201
  H        15.4899070083        0.3968372764       10.5595213925
  C        11.3377663452       -2.3993116222       15.8673347216
  C        12.2084393606       -3.5145966956       16.1782740218
  C        12.4349634199       -3.8476732445       17.5270889917
  C        11.7139659300       -3.1418862391       18.5056410436
  C        10.8068837389       -2.1332654702       18.2089307864
  C        10.6333591138       -1.7537744389       16.8811097920
  H        10.0226648117       -0.9195726198       16.6751901202
  H        10.1741459549       -1.7032269696       19.0569992271
  H        11.8293452923       -3.4988453388       19.5564393528
  H        13.1632368801       -4.5889009499       17.7438955896
  H        12.8049810529       -4.0331151857       15.4099358969
  C         9.2503928621       -3.5734890528       14.4567630590
  C         8.2654848868       -4.2031496859       13.7976977476
  C         8.1276152610       -3.9922083765       12.3798064251
  C         9.0209334631       -3.2863232341       11.7125989301
  H         9.0143249500       -3.1743108931       10.6452451550
  H         7.3159962629       -4.5606635891       11.8425445879
  H         7.5819221073       -4.8284243067       14.3815892541
  H         9.3908806944       -3.7587757668       15.5385616766
  C        11.2205661101       -2.2962376788       10.1389889525
  C        12.1680945806       -3.2985868227        9.8214178444
  C        12.3527909072       -3.9044429010        8.5490826155
  C        11.5775024328       -3.3674475380        7.4874556108
  C        10.8169843522       -2.2152175573        7.7750785451
  C        10.5810790150       -1.7428295658        9.0469340374
  H         9.9471140291       -0.8100004278        9.1792550001
  H        10.2245598059       -1.7354729583        6.9607118382
  H        11.6244242430       -3.8131884841        6.4551546401
  H        13.0651567094       -4.7487995420        8.5104976139
  H        12.7728370090       -3.7762525403       10.6215518923
