140

  C        11.5748829515        7.0152914670        2.1134118233
  C        10.5652444664        7.7474179393        2.7717637319
  C         9.4385956764        8.2195473850        2.0160652263
  C         8.2749106079        8.8043046631        2.6968238666
  C         7.2948100369        9.4771075602        1.9615219799
  C        10.6910651225        8.2395963543        4.1767777340
  C        11.7483722164        9.1685881550        4.5388683176
  C        11.8190077775        9.6893735675        5.8581529918
  C        10.7881228898        9.3585837737        6.7856186497
  C         9.8789187678        8.3408777739        6.4907951639
  C         9.8355335063        7.8158802016        5.2164227486
  H         8.2293506523        8.7407981531        3.7577883306
  H         6.4858627679        9.9710153988        2.4319991431
  H        12.5358335730        9.3920870366        3.7883894438
  H        12.5271237123       10.4354687689        6.1781943672
  H        10.7527289364        9.7346508028        7.7674563041
  H         9.0816963343        7.9983112619        7.1134188295
  H         9.1522094380        7.0617398183        4.9694494841
  C        11.5486157170        6.9940317988        0.6284155595
  C        12.6390212142        6.3193113766       -0.0038364755
  C        13.5964575942        5.6601320428        0.7782022832
  C        13.6066723260        5.7034295174        2.1738767749
  C        12.6157640810        6.3527582128        2.8865845468
  C         9.4863338118        8.2430160859        0.5459825352
  C        10.5909361095        7.6970576429       -0.1585782814
  C        10.6452776595        8.0139334833       -1.6108569145
  C        11.1662368547        9.3295070327       -1.8825984734
  C        11.2895570308        9.7862232122       -3.2147937242
  C        10.6612330786        9.0591108135       -4.2533996954
  C        10.0240731751        7.8173308944       -3.9743984023
  C        10.0544707835        7.3147926705       -2.6599840732
  H         9.4936558674        6.3837463273       -2.4833056110
  H         9.4762923813        7.3124606314       -4.7082205947
  H        10.7909042999        9.3855822101       -5.2838780937
  H        11.8426171892       10.7023941904       -3.4701967724
  H        11.7642704444        9.8788907993       -1.1186989075
  C         8.5075788235        9.1130917457       -0.1112765616
  C         7.4397548117        9.6807553946        0.5306402279
  H         6.7106829765       10.3229763812        0.0687944052
  H         8.5901404585        9.2652848715       -1.2142608259
  C        12.5258397620        5.9957847323        4.3475689475
  C        11.5286545969        5.1116686979        4.7331214811
  C        11.5020444716        4.7705241421        6.0897742135
  C        12.3759569848        5.3194793607        6.9887417625
  C        13.3665700732        6.1865655897        6.6194327344
  C        13.4132337436        6.4958016594        5.2853244675
  H        14.0973619416        7.1837427299        4.7986216422
  H        14.0357216240        6.6715638111        7.3748155307
  H        12.3483709086        4.9740640344        8.0176649364
  H        10.7271842210        4.0577457927        6.4223633731
  H        10.6866343694        4.8298058430        4.0808895943
  C        14.6547255421        5.0546362485        2.8921818684
  C        15.6913424064        4.4148450086        2.2170560300
  C        15.7038093050        4.4910547346        0.8120827780
  C        14.6745178660        4.9832266869        0.0980998521
  H        14.6868747371        4.9533130901       -1.0103585161
  H        16.4665748815        3.9569058108        0.2384679095
  H        16.5016336045        3.9964145675        2.8213482312
  H        14.4976327510        4.8839121158        3.9292554933
  C        12.6088530644        5.9819285604       -1.4620917341
  C        12.0741450007        4.7688062011       -1.8191462602
  C        12.1090519236        4.2946215761       -3.1408258526
  C        12.9017040493        5.0452882524       -4.0998984190
  C        13.4929281857        6.2702041660       -3.6999345516
  C        13.4189799280        6.6882494786       -2.3505443503
  H        13.8880877364        7.6389217272       -2.1348463041
  H        14.1932354292        6.7569925258       -4.4215495250
  H        13.1040453515        4.6498061203       -5.0924090923
  H        11.8621573366        3.2858387318       -3.4762595122
  H        11.6049203144        4.0362643998       -1.1226873775
  C        19.0701946630        6.8073048740        2.3249509147
  C        18.1209834153        7.4542743441        3.0817618978
  C        16.9908092920        8.0824018587        2.4078135423
  C        16.0388887388        8.8601853356        3.1458925101
  C        14.9393606872        9.4614228003        2.5021563403
  C        18.2698270331        7.8440409928        4.4816433627
  C        19.1281933678        8.9874524184        4.7612800288
  C        19.1878682048        9.5427793143        6.0362416366
  C        18.3123447422        9.1283823440        7.0231269666
  C        17.4092194012        8.0882638205        6.7872411629
  C        17.3962631705        7.4192419509        5.5413980185
  H        16.1177452940        9.0486123198        4.2161149021
  H        14.2838919504       10.0960799004        3.0723155150
  H        19.8250578582        9.3151183574        4.0238467112
  H        19.9079008325       10.3093165017        6.2570062004
  H        18.2403624542        9.6020665808        8.0141298012
  H        16.7756781918        7.7886540015        7.7087345983
  H        16.7159187192        6.5858326704        5.4314037586
  C        19.0703359390        6.9564335250        0.8756474446
  C        20.1405973461        6.4251609949        0.1276355991
  C        21.2384827341        5.9044359062        0.8200188031
  C        21.1743098467        5.6116808785        2.2011628783
  C        19.9890688091        5.9804174927        2.9199515276
  C        16.8617700057        8.1138961457        0.9455084513
  C        17.9968352126        7.6775653947        0.2185732016
  C        18.0195107825        8.1369419601       -1.1710911070
  C        19.0131715051        8.9549641549       -1.6845377236
  C        19.0099744280        9.3592362679       -3.0171465169
  C        17.8947779238        9.0768572044       -3.8071151470
  C        16.9646276831        8.1617530557       -3.3437779323
  C        17.0045829179        7.7007043229       -2.0229232156
  H        16.2968547688        7.0047753773       -1.6354365915
  H        16.1549747314        7.8978540182       -3.9933826901
  H        17.7413444923        9.5249023293       -4.7715899495
  H        19.8522765352        9.9556697011       -3.3640821831
  H        19.9515450632        9.1875553648       -1.0847765434
  C        15.7263190401        8.7490938880        0.3425836755
  C        14.7639222549        9.3399038327        1.0643024121
  H        14.0283395498        9.8926903504        0.5474559418
  H        15.6786257234        8.7283542365       -0.7432267414
  C        19.8481616466        5.5485510462        4.4047195396
  C        18.8019819947        4.6930179417        4.8217853945
  C        18.6029790171        4.4154876956        6.1887070369
  C        19.6252179222        4.6833097319        7.1621978218
  C        20.6799570294        5.5106540735        6.7678593468
  C        20.7349347828        6.0182969361        5.4163790339
  H        21.5364464946        6.7539866390        5.2506608373
  H        21.4120382724        5.7847760202        7.5264824812
  H        19.5811674169        4.2055713469        8.1252142828
  H        17.8109966344        3.8936497466        6.6974158536
  H        18.0682006546        4.2754135277        4.1699264984
  C        22.1766720948        4.7625809910        2.7515941794
  C        23.3269445181        4.4343947003        2.0411381365
  C        23.5106021776        4.9620336775        0.7170721291
  C        22.4559546818        5.6488929410        0.1597512749
  H        22.6954922695        6.0397563032       -0.8004315637
  H        24.4348501497        4.9195135654        0.1447093435
  H        23.9627683156        3.7977303726        2.5625688157
  H        22.0608511953        4.3096864030        3.7160221752
  C        20.0925660060        6.1920892180       -1.3394191640
  C        19.2736914662        5.1284901630       -1.6942476736
  C        19.2874624223        4.7092403846       -3.0518266581
  C        19.9951771290        5.4438465985       -4.0119208840
  C        20.9193466601        6.4597521436       -3.6165237893
  C        20.9081309490        6.8129198399       -2.2659099229
  H        21.4713644671        7.7267647803       -1.9777829809
  H        21.6329070600        6.9015242905       -4.2694746585
  H        19.8936687906        5.2521796880       -5.1098195606
  H        18.6394306022        3.9381089840       -3.5087748588
  H        18.7543492646        4.4758846229       -0.9880137547
