140

  C         4.5160570642       -1.0213416822       13.6041583515
  C         5.4882450467       -0.2337576132       14.3373496263
  C         6.6603929457        0.2624623751       13.6088076086
  C         7.6673715407        0.9487360910       14.3297874842
  C         8.8112273813        1.2977500936       13.7207450876
  C         5.3543909211        0.0213547248       15.7713117137
  C         4.6843535483        1.1644177355       16.1997823511
  C         4.8426521375        1.6650104102       17.5491200028
  C         5.6006174770        0.9374475802       18.4522693531
  C         6.2917946893       -0.1549916443       18.0322012668
  C         6.1398393687       -0.6380933523       16.6864976007
  H         7.6625194571        1.0475717831       15.3913357654
  H         9.6784267502        1.7354056081       14.1970587164
  H         4.1867135199        1.7756978816       15.4597983950
  H         4.1436159089        2.3880317103       17.8304423853
  H         5.7109117758        1.1342582060       19.5110141528
  H         6.9320702036       -0.7961057712       18.7076158733
  H         6.8321786107       -1.4202176782       16.3919909686
  C         4.5368516215       -0.8894377990       12.0796694118
  C         3.4775801838       -1.5790428836       11.4233692921
  C         2.3565316639       -2.0620284413       12.0961269691
  C         2.2320556951       -2.0392803401       13.5295331347
  C         3.3857753131       -1.6186557379       14.2059366419
  C         6.6730946868        0.2385224494       12.1458323460
  C         5.5367624856       -0.1961466731       11.4308222536
  C         5.3073437419        0.2123690400        9.9650633028
  C         4.5166070052        1.3234366516        9.7274292765
  C         4.3864729222        1.7781298340        8.3822273731
  C         5.1824240206        1.3660127626        7.3436697923
  C         6.2559755553        0.4378953181        7.6507267699
  C         6.2813456146       -0.0905953773        8.9513105908
  H         7.0003936509       -0.8635359992        9.1448051392
  H         7.0731467089        0.3239094183        6.9304488581
  H         5.1503033661        1.8049648075        6.3308326883
  H         3.5159944731        2.5154519885        8.3260165531
  H         3.8546512407        1.8375908156       10.4484755603
  C         7.7941775445        0.8228300601       11.5397915272
  C         8.8485386912        1.3600788519       12.2749730692
  H         9.7300045514        1.7935644692       11.7789930169
  H         7.7610103800        0.8259689455       10.4221460907
  C         3.4508874658       -2.0290655329       15.6430328265
  C         4.0302380305       -3.2893970598       15.8475481410
  C         4.1876009512       -3.8237651535       17.1854282501
  C         3.6141003163       -3.1512434769       18.2825654138
  C         2.8081157478       -2.0637675760       17.9853156949
  C         2.7897828421       -1.4217608435       16.7650966946
  H         2.2968748860       -0.4817427708       16.7745797252
  H         2.2533925467       -1.6173300927       18.7968489369
  H         3.6059019255       -3.5398508387       19.2746675672
  H         4.6500047214       -4.8454349715       17.2059122066
  H         4.5744186526       -3.7791030190       14.9845746687
  C         1.0572842539       -2.5797205314       14.1590410479
  C         0.0468476347       -3.1389413247       13.4342065902
  C         0.1622883912       -3.1853675542       11.9776150530
  C         1.3106295048       -2.7418000244       11.3391602794
  H         1.4016660586       -2.7525513297       10.2756269538
  H        -0.7461416919       -3.5136396409       11.5167559700
  H        -0.8464289417       -3.5192741189       13.8901333123
  H         1.0877315242       -2.5685517061       15.2312099958
  C         3.5839666416       -1.8561582497        9.9474682990
  C         4.3433391670       -2.9247013489        9.4302684717
  C         4.1303149033       -3.2881184567        8.0344596463
  C         3.2439454183       -2.5704560754        7.2431161922
  C         2.4718499497       -1.5344107670        7.7621916594
  C         2.7190941748       -1.1790234303        9.1053431975
  H         2.1645668828       -0.3912564146        9.5806723812
  H         1.7452999185       -1.0139973558        7.2206356243
  H         3.2882711966       -2.9236066352        6.1935593927
  H         4.6133364099       -4.1491834505        7.6086471407
  H         5.0235370756       -3.4190909477       10.0951690152
  C        11.4842678436       -1.0267759421       13.8877759091
  C        12.4132420206       -0.3178346327       14.6466756540
  C        13.5916859598        0.2036252222       14.0360050853
  C        14.6907572113        0.7895122598       14.7032109626
  C        15.7038579788        1.5021467552       14.0349200217
  C        12.3065773413        0.0691489394       16.1011582744
  C        11.6897843505        1.3210331448       16.4911015028
  C        11.8010796397        1.7413652352       17.8172161972
  C        12.6937526158        1.0606456136       18.6892289248
  C        13.3629667768       -0.0572003436       18.2525480034
  C        13.0559936130       -0.6471802843       16.9845707834
  H        14.7546812579        0.7368692003       15.7938284226
  H        16.5499834427        1.9249302111       14.7400503468
  H        10.9925069422        1.7636355369       15.7714926668
  H        11.2749936097        2.6115019288       18.1470201453
  H        12.9774857340        1.5109217868       19.6794407833
  H        14.0154895104       -0.5997367145       18.9537326132
  H        13.5591193680       -1.6067913435       16.7460360153
  C        11.6038836663       -1.1442701319       12.4316543384
  C        10.5927478483       -1.8257363960       11.7092878533
  C         9.4096510245       -2.3450629600       12.2995740033
  C         9.3578904317       -2.3868620091       13.7482101393
  C        10.4410811851       -1.8259883558       14.5422273266
  C        13.5890465092        0.3547908369       12.6038598927
  C        12.5977459001       -0.2925270947       11.8279170710
  C        12.6389331884       -0.0044571017       10.3537201153
  C        11.7487590982        0.9359752676        9.7787732927
  C        11.9549021417        1.4462835128        8.5056412070
  C        12.9782525437        0.8336334754        7.6857382119
  C        13.6411560007       -0.3144361127        8.1559659994
  C        13.4535762693       -0.7200512206        9.4940968130
  H        14.0914115131       -1.5591929245        9.8534735736
  H        14.4786189345       -0.6847911037        7.7063494864
  H        13.1694719274        1.3035763971        6.7444304791
  H        11.3084844727        2.1564678452        8.0514846391
  H        10.8914419770        1.2954282495       10.3117010414
  C        14.5862438780        1.1698621515       11.9818318031
  C        15.6694056513        1.7474903792       12.6632958030
  H        16.5125284234        2.2405259071       12.1725641291
  H        14.4137467443        1.3982793508       10.9382485938
  C        10.4792553337       -2.1858076251       15.9230524176
  C        11.3100136835       -3.3335162934       16.1620161853
  C        11.4010730403       -3.9103421352       17.4378496551
  C        10.4852195540       -3.4465952220       18.4379509064
  C         9.7576808744       -2.2442841281       18.2877200438
  C         9.7869636012       -1.6103318092       17.0176940582
  H         9.2913820076       -0.6299737352       16.8539627611
  H         9.1135717662       -1.8506854116       19.0722385483
  H        10.3840430920       -4.0142918145       19.4026354204
  H        12.0235778747       -4.7639943246       17.5358523514
  H        11.9542948945       -3.6728435179       15.3728688478
  C         8.3513963543       -3.1652237504       14.3679312558
  C         7.3719007647       -3.7902908763       13.6141692895
  C         7.3500122893       -3.6225641442       12.1559901566
  C         8.3593801188       -2.9847688287       11.5427891514
  H         8.4028865369       -3.0013487528       10.4670625477
  H         6.5795114666       -4.1931337079       11.5949763941
  H         6.4696279600       -4.2298743331       14.1057449426
  H         8.3768010689       -3.3304351414       15.4275128923
  C        10.5790925981       -2.0879920682       10.1835247053
  C        11.1638993413       -3.2408935549        9.6622297867
  C        11.1118533943       -3.5780227967        8.3446288149
  C        10.4917178383       -2.7180180753        7.4263428790
  C         9.8091763488       -1.5815463149        7.9067708415
  C         9.8560872488       -1.2434152567        9.3216277988
  H         9.3286441933       -0.3587046796        9.5628171284
  H         9.1982646106       -0.8943983479        7.2958933062
  H        10.4949374770       -2.9792509014        6.3392413935
  H        11.6288724177       -4.4587387942        7.9749540727
  H        11.6476869813       -3.8949147458       10.4090342202
