140

  C        11.3970587683        6.4240178282        0.4703988402
  C        10.3425095164        7.0908574375        1.2241827818
  C         9.1937849403        7.6092372880        0.5729595467
  C         8.1015232430        8.2293130575        1.2309068477
  C         7.0069357884        8.8057419318        0.6076843730
  C        10.4172323334        7.4113997800        2.6750830449
  C        11.2004304154        8.4912323734        3.1133877499
  C        11.2081397812        8.9182251014        4.4520258060
  C        10.4453039047        8.2234096499        5.3930406136
  C         9.6774290788        7.1671300239        4.9777256608
  C         9.7599659289        6.6747341179        3.6263997096
  H         8.1737406164        8.3868540032        2.3048396318
  H         6.1687760024        9.3456712788        1.0662720157
  H        11.8103755685        8.9643904890        2.4069699857
  H        11.8799529699        9.7506762935        4.6138031313
  H        10.4915119775        8.4348882283        6.4804945511
  H         9.1567508028        6.5815392307        5.7732432843
  H         9.1793242579        5.7752670625        3.3689962974
  C        11.2478954007        6.4245873681       -0.9550863140
  C        12.2220170113        5.7353057469       -1.6836811351
  C        13.4200517739        5.2800320519       -1.0102172200
  C        13.4585321604        5.1405950480        0.3670846994
  C        12.3699162141        5.5999634591        1.1376421314
  C         9.1196652129        7.6045566293       -0.8541957342
  C        10.2242012240        7.1367708686       -1.6569813019
  C        10.3566635448        7.7299245428       -3.0133941796
  C        11.1343533394        8.9358590552       -3.1087407711
  C        11.3883797728        9.5447997124       -4.3245675532
  C        10.8241144776        8.9901191383       -5.5366916397
  C         9.9679385225        7.8895313962       -5.4183399866
  C         9.9015927846        7.1609762996       -4.1894816635
  H         9.3535985906        6.2923231137       -4.2185888446
  H         9.4544010924        7.4502553360       -6.2319759918
  H        10.9054907175        9.5829616301       -6.4544721967
  H        12.0068139229       10.4615966718       -4.4091610590
  H        11.4432087940        9.3057153105       -2.1202093196
  C         8.0500029791        8.3283973144       -1.4902269135
  C         7.0840922804        8.9894401637       -0.7850041365
  H         6.4037398536        9.6685582079       -1.2800522607
  H         8.0826221333        8.5448710404       -2.5594459056
  C        12.2341217146        5.2662982756        2.5281886932
  C        11.3592230375        4.2374716796        2.8765748095
  C        11.1904561404        3.7959720824        4.1943446854
  C        11.8953276613        4.3716179788        5.2701668774
  C        12.8875835770        5.3579187168        4.9266333886
  C        13.0522735339        5.7174043371        3.6098570263
  H        13.8296085280        6.4468400048        3.3638613343
  H        13.6627038775        5.6583147903        5.6155216839
  H        11.7504334351        4.0552520768        6.2859820887
  H        10.3734021612        3.0735839936        4.3551842360
  H        10.6320989718        3.8841469289        2.1711443139
  C        14.5057291855        4.3763906019        1.0296171736
  C        15.5452207781        3.8819866591        0.2912321361
  C        15.5601153447        4.0756942166       -1.1300034409
  C        14.5789306382        4.7445798783       -1.7116588820
  H        14.6124013897        4.8581420263       -2.8237160929
  H        16.4321999613        3.6602773937       -1.6529541013
  H        16.3884749794        3.3950877519        0.7003609394
  H        14.4358150530        4.0471205732        2.0710232365
  C        12.0370875732        5.3256055514       -3.0844488881
  C        10.9992848338        4.2708362517       -3.2813635530
  C        10.7874789082        3.7797912781       -4.5460239462
  C        11.5689167790        4.1920691007       -5.6445523400
  C        12.5304325833        5.2465347091       -5.4652967943
  C        12.7166326115        5.7714296040       -4.1865289354
  H        13.5379189953        6.5049607390       -4.1298292174
  H        13.1865648398        5.5207932427       -6.2962455111
  H        11.3863398892        3.7302919337       -6.5902100815
  H        10.0380736862        3.0654495348       -4.5237405278
  H        10.3520690217        3.9311585478       -2.4710371839
  C        18.4121342461        6.5233119566        0.5190331942
  C        17.3479577083        7.2309747100        1.1413757146
  C        16.2767201287        7.8487048434        0.4714321192
  C        15.2354142606        8.6307289441        1.0575901892
  C        14.2135155202        9.1617673832        0.3426957761
  C        17.4534258007        7.5951147008        2.6416232824
  C        18.2995081533        8.6909899992        2.8897347530
  C        18.1281554155        9.4187122845        4.0713608365
  C        17.2560670900        8.9233192552        5.0686077279
  C        16.5218753350        7.7456982962        4.8992004748
  C        16.6228608687        7.0969020511        3.6790511537
  H        15.1122964487        8.7479427574        2.1354324512
  H        13.4308330874        9.7335956732        0.8205586480
  H        18.9116639488        9.0960442099        2.0865185095
  H        18.6579458428       10.3549074735        4.2342653776
  H        17.2477320335        9.4742654174        6.0332415922
  H        15.8235271724        7.5049422482        5.6839943796
  H        16.0782703324        6.2024114238        3.4559796877
  C        18.4460690524        6.4330672959       -0.9719209966
  C        19.5441819844        5.7722862218       -1.6070173975
  C        20.6176997672        5.2575419635       -0.8201064244
  C        20.6057865701        5.3527668931        0.6606287592
  C        19.4900649210        5.9820945331        1.3267411616
  C        16.3190480815        7.7396182410       -0.9907655519
  C        17.4055748627        7.1670849743       -1.6369375297
  C        17.5062375406        7.4295880792       -3.1127002903
  C        18.1735892314        8.6052517494       -3.6155063651
  C        18.1817208072        8.8211416795       -5.0300715853
  C        17.3433414573        8.0110603033       -5.8592816313
  C        16.5955032621        7.0444504700       -5.3490529430
  C        16.6136169722        6.7608260945       -3.9651446512
  H        16.0123595271        5.9506423844       -3.6527564486
  H        16.0483611275        6.3508012489       -6.0159757921
  H        17.4207034715        8.0803502809       -6.9712229733
  H        18.7071163279        9.6907428321       -5.4904251374
  H        18.7516305045        9.3039238201       -2.9909013753
  C        15.2501260041        8.3855784894       -1.7275469367
  C        14.2372684288        9.0165916389       -1.0722277738
  H        13.4353580455        9.3326176674       -1.6743343168
  H        15.1780688180        8.3977465121       -2.8243496172
  C        19.3918167831        5.6710870477        2.8093606562
  C        18.8009396095        4.4704103511        3.1994745183
  C        18.9956396921        3.9961114845        4.4929028015
  C        19.6987221235        4.7210877486        5.4185555559
  C        20.2108585309        6.0272390748        5.0360046198
  C        19.9952054472        6.5067276475        3.7474262503
  H        20.4464390152        7.4493811178        3.3475761518
  H        20.8548656515        6.5120501777        5.7039646184
  H        19.6621892942        4.6373875110        6.5502937484
  H        18.5547185056        3.0007478459        4.7497174486
  H        18.2802507389        3.8981210378        2.3910556400
  C        21.6836432260        4.7970276980        1.4027329514
  C        22.7090744871        4.1917298573        0.7592766978
  C        22.7722045516        4.1479568576       -0.6476427347
  C        21.7761430986        4.7514794244       -1.4291435244
  H        21.8610707187        4.7050499820       -2.5052509532
  H        23.5460123878        3.6367343934       -1.2272048402
  H        23.5056343397        3.7752517647        1.3745195040
  H        21.6784569555        4.7624464602        2.4911675269
  C        19.5932313686        5.4549092788       -3.1402338089
  C        18.9572775749        4.3046282567       -3.6501744085
  C        19.1870329380        3.9062460011       -5.0003013480
  C        20.0491241390        4.6630606368       -5.8100451716
  C        20.7197751713        5.7576588034       -5.2463056370
  C        20.5269998836        6.1255318907       -3.9372174677
  H        21.0227570660        6.9760121130       -3.5924561929
  H        21.4704697633        6.4312244802       -5.7350024813
  H        20.2350425230        4.3622197319       -6.8236114445
  H        18.6866435704        3.0267144405       -5.3738224213
  H        18.3508741917        3.7453465738       -2.9944529065
