140

  C        10.0302992618        7.4307960733        1.2074481149
  C         8.9696173326        8.0090422866        1.8729443070
  C         7.8506911437        8.4218214270        1.1275913131
  C         6.8764693547        9.2136828869        1.7872388227
  C         5.8644494155        9.8800205378        1.0761248658
  C         9.0192587104        8.4777926916        3.2565790244
  C         9.6908064031        9.7159005463        3.4542008091
  C         9.7927568803       10.3219635156        4.6900184842
  C         9.2819248994        9.7410563979        5.8431845360
  C         8.5028504247        8.6304412117        5.6023973343
  C         8.3129317059        7.9978399128        4.3550321696
  H         6.9361528597        9.4499128564        2.8671961575
  H         5.0844792525       10.5268487273        1.5761745922
  H        10.2368084410       10.1913679705        2.6541089027
  H        10.5324390600       11.0923661058        4.8004476961
  H         9.4026915810       10.3319638412        6.8393329029
  H         8.0241144995        8.1510653711        6.3894764286
  H         7.7584426083        7.0235602277        4.3458401338
  C        10.0085059320        7.4455189833       -0.2885222584
  C        10.9976139609        6.7238362901       -0.9361074829
  C        12.1566817650        6.1761113174       -0.2839788134
  C        12.2455896028        6.2980434390        1.1453758108
  C        11.1688657608        6.8118344317        1.8475711319
  C         7.7732675903        8.4356095272       -0.3192948325
  C         8.9273754802        8.0943834958       -1.0564644221
  C         9.0437948095        8.3018601389       -2.5692743039
  C         9.6965426284        9.4543915291       -3.1347377750
  C         9.5718325887        9.7425811961       -4.4818745779
  C         8.7714980953        8.9031057177       -5.3058781051
  C         8.1012032458        7.8400894215       -4.7473943029
  C         8.2135009202        7.5528802113       -3.3776671520
  H         7.7096851714        6.6679760618       -3.0184785699
  H         7.3618771050        7.3380233968       -5.3665796274
  H         8.6048350727        9.1305914225       -6.3754642925
  H         9.7940478325       10.6844483388       -4.9184774987
  H        10.1816189695       10.1651666152       -2.4377167267
  C         6.7430882243        9.1198206598       -1.0280486212
  C         5.8035557865        9.7694611548       -0.3210597888
  H         5.1325268284       10.2641656394       -0.9888379897
  H         6.6942694803        9.0100636205       -2.1374123498
  C        11.1027601876        6.5367807875        3.3096383112
  C        10.2577700938        5.5103542007        3.7346058854
  C        10.2228274308        5.0336279685        5.0459473326
  C        11.0741492581        5.6458796026        5.9895811865
  C        11.8908694067        6.7333646589        5.5582337797
  C        11.8425091218        7.2162297054        4.2412713733
  H        12.4348939158        8.0388696930        3.8147974325
  H        12.6342031238        7.1253019965        6.2366580576
  H        10.9919134506        5.2370974916        6.9883436064
  H         9.6165977592        4.1425499871        5.1306823712
  H         9.6038058255        4.9361801193        3.0723339891
  C        13.3525680167        5.7988018616        1.7822325636
  C        14.4113259383        5.1694393823        1.1340499007
  C        14.4032183669        5.1118448057       -0.2703504793
  C        13.2311264224        5.5657585184       -0.9363319975
  H        13.0418858460        5.3310021601       -1.9495813457
  H        15.2090512493        4.5938168325       -0.8137282454
  H        15.0823963426        4.6061883989        1.7363771550
  H        13.4210181202        5.7794013233        2.8498260413
  C        10.9048803750        6.3662651665       -2.3627355765
  C        10.0348949434        5.3378349713       -2.7262448768
  C        10.0397080005        4.7889527544       -3.9986103908
  C        10.8803097919        5.2990136791       -5.0373338754
  C        11.7612620697        6.3234021050       -4.7186769730
  C        11.6801015738        6.8980630974       -3.3876239861
  H        12.4204231626        7.7510175790       -3.2313347160
  H        12.4700300679        6.7614694033       -5.3836807663
  H        10.8935733229        4.7600728430       -6.0042285729
  H         9.3045639666        3.9933655939       -4.2476379689
  H         9.2933602851        4.9745075936       -2.0354389120
  C        17.0188596553        7.5019577983        1.4831286042
  C        15.9670737272        8.2711190558        2.1131756114
  C        14.8762172149        8.7696281008        1.3061907038
  C        13.7693573436        9.4896505536        1.8681937207
  C        12.7246778865        9.8746135380        1.1204592394
  C        16.1589950686        8.6649121226        3.5266044273
  C        17.0980713084        9.7074676732        3.8315637819
  C        17.1883514140       10.1002762347        5.1541170697
  C        16.3902357747        9.6096278526        6.2142792964
  C        15.5296518681        8.5520405459        5.9515063420
  C        15.4112803978        8.0778596878        4.5976730628
  H        13.8265815158        9.7509255662        2.9124526979
  H        11.9589318227       10.4999733912        1.5591482737
  H        17.8004912005       10.1545173645        3.1296211872
  H        17.9506631518       10.8783869710        5.4064336566
  H        16.3513047241       10.1742949329        7.1563261193
  H        14.7427662515        8.1411351818        6.6340148849
  H        14.7185117879        7.2806464414        4.3487330665
  C        17.0500524800        7.3858694522       -0.0040386480
  C        18.1493523163        6.6600187963       -0.6269806523
  C        19.1902821812        6.1173688933        0.1514374407
  C        19.1306463569        6.0612014894        1.5815100816
  C        17.9366246858        6.6330331826        2.2126846049
  C        14.8320608556        8.4397525647       -0.1191812570
  C        15.9463832554        7.9065514815       -0.7571478407
  C        16.0759023280        8.2546829376       -2.2343578956
  C        16.9433695545        9.3183329765       -2.5740447799
  C        16.6932338112        9.9423896794       -3.8424470344
  C        15.8681012443        9.3604888958       -4.7962978166
  C        15.1704024119        8.1840835703       -4.4634695936
  C        15.2691378812        7.6277167665       -3.1978054805
  H        14.5516843448        6.8379607749       -2.9788962712
  H        14.6724307461        7.6147446804       -5.2832433649
  H        15.7274651464        9.8052645700       -5.8140523289
  H        17.3333100034       10.7780508328       -4.1327528561
  H        17.6429006713        9.7276603489       -1.8707436476
  C        13.7204502787        9.0447867011       -0.8731178720
  C        12.6713451221        9.7100131089       -0.2910950552
  H        11.9272094975       10.2895360167       -0.8894107919
  H        13.7374830553        9.0954958418       -1.9521332325
  C        17.8680732663        6.3511927406        3.7334980062
  C        17.1240373419        5.2063233531        4.0584878791
  C        17.2781023649        4.7524329775        5.3524686279
  C        18.1847228891        5.2837676243        6.2295985099
  C        18.9236817107        6.4435818285        5.8403181050
  C        18.7856471858        6.9584896622        4.5744247588
  H        19.2844074440        7.9162771654        4.3415606428
  H        19.5643005096        6.9229870635        6.5802933645
  H        18.3008221335        4.8898315654        7.1970808670
  H        16.6100201866        3.9378384752        5.6547185602
  H        16.4596020405        4.8381173569        3.3109032208
  C        20.1044762893        5.2858364098        2.2960778732
  C        21.2072848615        4.7406644553        1.6402838848
  C        21.3489048307        4.9292524361        0.2628221200
  C        20.3586910589        5.5579598530       -0.4623978460
  H        20.4781392526        5.5842906635       -1.5265272633
  H        22.2730864739        4.5266460698       -0.1956512374
  H        22.0037570887        4.1752292621        2.0643924666
  H        19.9567656512        5.1475000253        3.3625633275
  C        18.3014978135        6.3769678650       -2.1264533418
  C        17.7948509721        5.1974599751       -2.6061113750
  C        17.9981654107        4.7251440794       -3.8949767979
  C        18.6239178028        5.6125131044       -4.8124962769
  C        19.0648480456        6.8398390942       -4.4152910290
  C        18.9870006409        7.2003978593       -3.0418682520
  H        19.4117084061        8.1236859792       -2.7958069886
  H        19.5530623103        7.4742039018       -5.1356701481
  H        18.7146971141        5.3465871640       -5.8603718778
  H        17.5951309334        3.7582998428       -4.1633363919
  H        17.1733080273        4.6011444399       -2.0167510303
