140

  C        10.7090902739        7.2461828208        1.5149999226
  C         9.5871017048        7.8957599607        2.1884437791
  C         8.5619099777        8.4777398473        1.4015571322
  C         7.5211015349        9.1823364478        2.0660087126
  C         6.6289288652        9.9362684648        1.3537118320
  C         9.6559815571        8.3302303462        3.6242839350
  C        10.4487315711        9.4629097309        3.9163322657
  C        10.5874253568        9.9864041258        5.2208017264
  C         9.7088572930        9.4084469966        6.1894233012
  C         8.9846466655        8.2859309491        5.9153984017
  C         8.9967233079        7.6959087163        4.6449254897
  H         7.4069375504        9.1547065821        3.1216087960
  H         5.8770089602       10.3358733110        2.0169053880
  H        11.1137759486        9.9239896338        3.1549867115
  H        11.0842541049       10.8925843094        5.4375383502
  H         9.7582723029        9.7872329624        7.2564768541
  H         8.3276720235        7.8115247025        6.7345309948
  H         8.5929329931        6.6787069875        4.4213963269
  C        10.7358059397        7.2085596239        0.0640370534
  C        11.8120508543        6.4794131724       -0.5834697334
  C        12.8854413209        6.0279842525        0.2228143715
  C        12.8450978952        6.1690115985        1.6791727327
  C        11.7238014268        6.6737619081        2.3418190387
  C         8.6537056867        8.4556519465       -0.0577640679
  C         9.7912917390        7.9500562666       -0.7317261940
  C        10.0839891715        8.3419605939       -2.1740471706
  C        11.2002058503        9.2098709658       -2.4473467828
  C        11.5439602564        9.6522408445       -3.7436665332
  C        10.7501052585        9.2196135905       -4.8455902198
  C         9.7567289316        8.2297058234       -4.6174780206
  C         9.4586268553        7.7627300457       -3.2879910544
  H         8.6565970631        7.0292246303       -3.1747902990
  H         9.0954748311        7.9841465521       -5.4845862308
  H        10.8381940130        9.7178981757       -5.7521411976
  H        12.3640018718       10.2641430934       -3.9063150005
  H        11.8391390219        9.4875504460       -1.5929805867
  C         7.7247682529        9.2123194758       -0.8175964149
  C         6.7667747834        9.9267419007       -0.0596296297
  H         5.9139829407       10.5889678560       -0.5297448408
  H         7.6620186924        9.2658590015       -1.8851619611
  C        11.6635812525        6.2981349516        3.8116710547
  C        11.0186355683        5.1218870213        4.1489262659
  C        11.0246832087        4.5750291442        5.4350244116
  C        11.7984447375        5.2404937736        6.4562811695
  C        12.5335571272        6.3726760271        6.1211623682
  C        12.3736840717        6.9169977537        4.8474637839
  H        12.9277553204        7.8595844726        4.7146200934
  H        13.1634945797        6.9716949202        6.8283184759
  H        11.9500523444        4.7622363567        7.4413059606
  H        10.5013104287        3.6926699128        5.6902545133
  H        10.4548112698        4.5457916811        3.3816271982
  C        13.9239777926        5.5675723541        2.4249962583
  C        14.9262451581        4.9234742025        1.7435456689
  C        14.9126946828        4.6383942996        0.3898213192
  C        13.9596090253        5.2922715439       -0.3606185911
  H        13.8358120853        5.1353716297       -1.4431828584
  H        15.6709354093        4.0380623575       -0.0956476395
  H        15.8253829185        4.6154008999        2.2963601196
  H        14.1177355559        5.7021401577        3.4646479466
  C        11.7433137077        6.1125399607       -2.0225606736
  C        10.9301031599        5.0850806590       -2.5055248276
  C        11.0340745709        4.6289592038       -3.8137233253
  C        11.9507160556        5.1918600827       -4.6927508978
  C        12.7232778035        6.2648884421       -4.2905795804
  C        12.6578032134        6.6921575766       -2.9423814277
  H        13.3214322827        7.4264266121       -2.5712334775
  H        13.3289737147        6.7978904516       -5.0215681330
  H        12.0167943920        4.7476695602       -5.7274555611
  H        10.4529665539        3.7532753211       -4.1627631910
  H        10.1782438442        4.5952603610       -1.9399729775
  C        18.1284472025        7.1962059471        1.5365619599
  C        17.1309017726        7.9223417182        2.2539479300
  C        16.0969571368        8.5652415554        1.5265462996
  C        14.9411010553        8.9786178206        2.2725048229
  C        13.8511571933        9.5810602797        1.5988273221
  C        17.1942948629        8.3519622800        3.7393594115
  C        18.1861327156        9.2512200143        3.9861609224
  C        18.3090454137       10.0046848676        5.1594688650
  C        17.3428520549        9.8162951763        6.1256181581
  C        16.3456515406        8.7605852354        5.9745963222
  C        16.3385268799        8.0354487623        4.7675715342
  H        14.9804375582        8.7908222640        3.3543625704
  H        12.9450425556        9.8473072686        2.0854856055
  H        18.9641300991        9.4381535650        3.1925424024
  H        19.1546079943       10.6635012947        5.2063337104
  H        17.4963164479       10.3170372843        7.0683349097
  H        15.7042202271        8.5018986629        6.8214523797
  H        15.6457680121        7.2206871588        4.6064486793
  C        18.1476659494        7.2093410886        0.0926927440
  C        19.1894473731        6.4697096703       -0.5900728231
  C        20.2805467779        5.9405471701        0.1763488471
  C        20.1812943356        5.9349501647        1.6336586137
  C        19.0928809045        6.4524622111        2.3429144063
  C        16.1986856137        8.6784492252        0.1097182677
  C        17.2753343089        8.1130508327       -0.5866567407
  C        17.3139170587        8.3860236998       -2.0742086077
  C        18.2144651574        9.3410103193       -2.5929411561
  C        18.3091890809        9.7458605714       -3.9440601706
  C        17.3012425980        9.1985809969       -4.7917123244
  C        16.3815044649        8.2847342046       -4.3060039196
  C        16.4161625895        7.7991628046       -3.0010621425
  H        15.7954834052        7.0234636838       -2.6825650872
  H        15.5373965756        8.0016802189       -4.9660473047
  H        17.3078498815        9.4439848337       -5.8688219629
  H        19.0042692929       10.5450376471       -4.1807017332
  H        18.8788279942        9.8065306660       -1.8429271461
  C        15.1969602952        9.4508481119       -0.5385681084
  C        14.0631580479        9.7801024974        0.1858741293
  H        13.3406393156       10.3500609549       -0.3462444062
  H        15.1430010286        9.5291468080       -1.5992384849
  C        18.8992139603        6.1742177203        3.8131030946
  C        18.0064820879        5.2297318216        4.3336978818
  C        18.2813490042        4.7796674764        5.6613442837
  C        19.2421410089        5.3206037620        6.4720667848
  C        19.9823674342        6.4172145391        6.0019093711
  C        19.8316318474        6.7953894481        4.6805740520
  H        20.5209131286        7.4948049382        4.2998862383
  H        20.6375232553        6.9253304693        6.7045281580
  H        19.4521169662        4.9462834857        7.4449851702
  H        17.7116602146        3.9221550228        6.0469535020
  H        17.4393319505        4.7968559814        3.5421146170
  C        21.2303071274        5.1973385967        2.3144182476
  C        22.3413321680        4.6709806859        1.7047876082
  C        22.4177388526        4.7274647620        0.2820244497
  C        21.4346795795        5.3409185434       -0.4419529683
  H        21.5183410436        5.5098964540       -1.5321848145
  H        23.3634091733        4.3800748433       -0.2545156455
  H        23.0893181171        4.0814014693        2.2427448238
  H        21.3416750179        5.2214966860        3.3797421176
  C        19.1827605161        6.2034237001       -2.0470596408
  C        18.3651763314        5.3343922786       -2.7215080399
  C        18.6162971214        4.9923462112       -4.0440001476
  C        19.5833300668        5.6821713796       -4.7417771858
  C        20.4330916414        6.5660787085       -4.0533189896
  C        20.2215081611        6.7920697310       -2.7120564765
  H        20.8116725521        7.5718718629       -2.1672456433
  H        21.3318303857        7.0526156878       -4.4802513188
  H        19.8418826394        5.3818912415       -5.7553350135
  H        17.9410473449        4.2945600661       -4.4898153252
  H        17.5145710602        4.8621370214       -2.2468509670
