140

  C        11.5421140285        6.5671325868        0.6355683479
  C        10.5329681579        7.2787859065        1.3275487758
  C         9.4172054342        7.7770316612        0.6227553272
  C         8.3630703610        8.4834730990        1.3429187577
  C         7.3521413400        9.1754965574        0.6632954791
  C        10.6034140527        7.6111722207        2.8155314559
  C        11.3393308477        8.7322953945        3.2966799234
  C        11.1866380825        9.2506239948        4.5587513176
  C        10.3796465042        8.6339635854        5.5116109339
  C         9.5024856347        7.5831089031        5.0793025196
  C         9.6311336953        7.1269848458        3.7389841166
  H         8.2060628219        8.4899376975        2.4343890661
  H         6.5056929180        9.6839055497        1.1882594313
  H        11.9774142535        9.1954041384        2.5945072873
  H        11.8613377492       10.1366831398        4.7615211440
  H        10.2865333382        8.9950341620        6.5535155613
  H         8.7416615881        7.2750604168        5.8234517381
  H         9.0013027832        6.3022337332        3.4196520200
  C        11.5069967325        6.5374994513       -0.8320833002
  C        12.4461364278        5.7614353993       -1.5366080556
  C        13.6402341066        5.2904987287       -0.9213753885
  C        13.6268962286        5.3453472459        0.5269611607
  C        12.6253250883        5.9468127353        1.2886307884
  C         9.3515030300        7.8378921800       -0.7670339373
  C        10.4393362967        7.2555536474       -1.5110058381
  C        10.4519201966        7.5133811896       -2.9712261345
  C        11.5072595181        8.2659880439       -3.5109181989
  C        11.5137823687        8.6591473629       -4.8442234855
  C        10.4589372014        8.3185137716       -5.7076357128
  C         9.4428712740        7.4240244675       -5.1710805679
  C         9.3859458858        7.1727333908       -3.7656587188
  H         8.5182317918        6.6943084043       -3.3964223123
  H         8.7739900494        6.9265858068       -5.8246086587
  H        10.6041154830        8.5583109749       -6.7666754600
  H        12.4009968912        9.2667026811       -5.1844146005
  H        12.3198942331        8.4241319786       -2.7945547276
  C         8.3620216961        8.6037737427       -1.4588351870
  C         7.3317046463        9.1738206337       -0.7538341606
  H         6.5513301402        9.7347057372       -1.2320402100
  H         8.2838176861        8.5267554137       -2.5593793575
  C        12.5944881762        5.6656006859        2.7960902120
  C        11.8095643296        4.5415682355        3.0889610957
  C        11.8056995490        3.9601420094        4.3581153894
  C        12.7113360560        4.4020811827        5.3181193296
  C        13.3346826260        5.6504844843        5.1752287512
  C        13.2994792827        6.2320326003        3.8646520507
  H        13.9858431531        7.0147499682        3.6531922164
  H        14.1017615069        6.0558627205        5.8031905392
  H        12.8020564295        3.9304184008        6.2826009084
  H        11.1065802986        3.1879741511        4.5101533148
  H        11.1517753008        4.1057540922        2.3830521500
  C        14.7640323547        4.7632766273        1.1763804096
  C        15.8056177202        4.1850186500        0.4971124913
  C        15.8964524710        4.0909277004       -0.9160727311
  C        14.7367377185        4.5558388746       -1.5974115460
  H        14.7218031714        4.3999831412       -2.6740883190
  H        16.7321816474        3.6041688732       -1.4663727991
  H        16.5912343333        3.6058206344        0.9553375462
  H        14.8887656809        4.8973191340        2.2632154270
  C        12.2903635644        5.3412572426       -2.9449921531
  C        11.2882435949        4.4595398159       -3.3306917984
  C        11.1791343894        4.0473671196       -4.6534516236
  C        12.1683314314        4.4002683923       -5.6319808395
  C        13.1749645429        5.3214670260       -5.2411532639
  C        13.2910691116        5.6781446254       -3.9072172035
  H        14.1030199865        6.3389258632       -3.5957676103
  H        14.0272380959        5.6195149835       -5.8935048699
  H        12.1117680246        4.1995433840       -6.7121254919
  H        10.3583572836        3.2988177923       -4.9689702152
  H        10.5772620333        4.1166715349       -2.5946255251
  C        18.6286561238        6.4980837402        0.7645797806
  C        17.6555507742        7.1980612080        1.4892341962
  C        16.5591447176        7.8639531436        0.8227520725
  C        15.6128716314        8.6913867229        1.5058806187
  C        14.5930955595        9.2574409110        0.8549444798
  C        17.7445212392        7.6061384839        2.9598285498
  C        18.3573923515        8.8143633533        3.3615362304
  C        18.2599569692        9.3472189816        4.6751560227
  C        17.4924768976        8.6151105477        5.5874661921
  C        16.7254865957        7.5184024575        5.1995432644
  C        16.9165008063        7.0027764822        3.9096097420
  H        15.6435881151        8.8374321318        2.5760366545
  H        13.8635812669        9.8377243674        1.3886102803
  H        18.9565102262        9.4185976077        2.7002683929
  H        18.7666325510       10.2447737415        5.0249941121
  H        17.3506699909        9.0400175729        6.6071077571
  H        16.0365154298        7.1306383913        5.9292264010
  H        16.3932476156        6.1083282148        3.6530727802
  C        18.6434544441        6.5301330770       -0.6937033201
  C        19.7277706303        5.8200190520       -1.3711973197
  C        20.7649412393        5.1690279687       -0.6809038736
  C        20.7513556641        5.0786871919        0.7477212423
  C        19.6438539398        5.7115059932        1.4567193364
  C        16.5602999309        7.8839020576       -0.6228018323
  C        17.6331983815        7.2927806008       -1.3510291976
  C        17.6500372748        7.5386350997       -2.8283655607
  C        18.3765695554        8.5785794860       -3.4079532247
  C        18.2334544674        8.8921368828       -4.7464179670
  C        17.3734195125        8.1660036718       -5.5588062002
  C        16.6186268811        7.1207432528       -4.9950570628
  C        16.7048931868        6.7990721204       -3.6186448280
  H        16.3192995529        5.9368906826       -3.1432739215
  H        15.9447628043        6.6122203786       -5.7700863797
  H        17.0578439306        8.4854090248       -6.5215790766
  H        18.7663178374        9.7569795773       -5.1541424510
  H        18.9197377267        9.3124453972       -2.7715073509
  C        15.4444155351        8.5071426173       -1.3028488554
  C        14.4798724434        9.0882682168       -0.5333142930
  H        13.7372883019        9.5683363765       -1.1024525490
  H        15.3548678639        8.5292139985       -2.3979465197
  C        19.4890091414        5.4244457459        2.9107827490
  C        18.6474659490        4.3853892684        3.3177594421
  C        18.7093296785        3.8005863931        4.6188741683
  C        19.4994519462        4.4427215578        5.5879076254
  C        20.1938483628        5.5896054629        5.2564101141
  C        20.2046283236        6.1072849894        3.9465392114
  H        20.7558856700        6.9816977221        3.6024526411
  H        20.7782183978        6.0692577343        6.0045309253
  H        19.4989002577        4.0873063511        6.6378313424
  H        18.0701601074        2.8705011721        4.8014926009
  H        17.7903674432        4.1125361656        2.6602981159
  C        21.7675757435        4.4341236583        1.5049535671
  C        22.8054519416        3.8443220490        0.8542001555
  C        22.8687309206        3.9129772786       -0.5597815036
  C        21.8869198354        4.4826154451       -1.2732043087
  H        22.0560976336        4.5334038666       -2.3485717561
  H        23.7550572613        3.5971719769       -1.1259761428
  H        23.6429896960        3.4084192870        1.4285070008
  H        21.7047286993        4.5790466902        2.5877997552
  C        19.7406341267        5.5198562886       -2.9089196995
  C        19.0709260683        4.3772876270       -3.3970930320
  C        19.1618272835        3.9925580600       -4.7359171826
  C        20.0534371844        4.6918751708       -5.5306627515
  C        20.8639667476        5.7972723142       -4.9873841617
  C        20.6817560607        6.2173337792       -3.6642432328
  H        21.1622805849        7.0462403912       -3.2411934940
  H        21.5670714694        6.4239607664       -5.6068475610
  H        20.1493236813        4.4133549335       -6.5671762583
  H        18.5853015459        3.1093584139       -5.0433954492
  H        18.4779133941        3.8157226201       -2.7453226557
