140

  C         8.3928790264        8.2935692787        1.4751896663
  C         7.3644325611        9.0750186648        2.1121205132
  C         6.2324899586        9.5621120852        1.3794884319
  C         5.1457873674       10.2400065434        2.0323713744
  C         4.1636269305       10.8849982094        1.3078567052
  C         7.4066712247        9.3086645299        3.6222041077
  C         8.2564523427       10.2205664656        4.2580602340
  C         8.2969139154       10.3862364893        5.6625262558
  C         7.3716078856        9.6764763432        6.4671653758
  C         6.4573692101        8.8164225935        5.8066483430
  C         6.4854191736        8.6218396703        4.4545884194
  H         5.1566874689       10.2342930067        3.1557790716
  H         3.3178682385       11.3792766774        1.7055418931
  H         8.9988372941       10.7206351117        3.6097837767
  H         9.0345918101       10.9870383205        6.1834232536
  H         7.3706978255        9.7608885405        7.6001125326
  H         5.6812441871        8.2962691962        6.4059346229
  H         5.9114297638        7.8418665185        4.0053286373
  C         8.4432785251        8.2539363032        0.0001120476
  C         9.4859688244        7.4641552366       -0.6188359557
  C        10.5977497666        7.0832057210        0.1457152947
  C        10.5303994209        7.1886381150        1.6259576321
  C         9.3833037854        7.5957207548        2.2855387507
  C         6.3260817237        9.5779741786       -0.0606416243
  C         7.4457517430        9.0346637665       -0.7424376941
  C         7.6062470869        9.2716722898       -2.2033887801
  C         8.3716890632       10.4115725723       -2.5727349292
  C         8.2831692420       10.8351595413       -3.9332819758
  C         7.4263247856       10.1835299929       -4.8369178258
  C         6.7300751951        9.0732047189       -4.4526306642
  C         6.7528991195        8.6498194242       -3.1307624650
  H         6.2202829492        7.7633675703       -2.8336033554
  H         6.1516239148        8.5207316230       -5.2188519718
  H         7.3554553282       10.6436497868       -5.8599607358
  H         8.7905638290       11.7263989859       -4.2578923014
  H         9.1220816386       10.9096015318       -1.9100911964
  C         5.3188627084       10.3304239871       -0.7785945792
  C         4.3013484075       10.9680340099       -0.0938508964
  H         3.5465389621       11.5926054526       -0.5896833766
  H         5.3382766439       10.4823076796       -1.8563298654
  C         9.2106070981        7.1915530063        3.7129127222
  C         8.3359210698        6.1223612997        3.9949521528
  C         8.3966610692        5.4947874382        5.2183106229
  C         9.2466890254        5.9151525783        6.2181426736
  C        10.0346325605        7.0775511188        6.0106508224
  C         9.9839915883        7.7677881221        4.7996731164
  H        10.6245679366        8.6842775385        4.6725060691
  H        10.6625775812        7.4459626689        6.8156575578
  H         9.3617328433        5.3115943928        7.1328209930
  H         7.7758314231        4.6157954271        5.4406730715
  H         7.7267940922        5.7830891826        3.1583059989
  C        11.6483643883        6.6181312517        2.3522197059
  C        12.6855101776        6.0352508151        1.7293378194
  C        12.7303033173        5.8283153407        0.3237289729
  C        11.7123281707        6.3611879587       -0.4628832537
  H        11.6416821980        6.2692092465       -1.5278631534
  H        13.6171434779        5.3736902276       -0.1420541870
  H        13.5475868828        5.7213606030        2.3364282718
  H        11.6205830473        6.7652438881        3.4352625459
  C         9.4897498696        7.1476504825       -2.0880180715
  C         8.7100318301        6.0559366788       -2.5002846383
  C         8.6656958676        5.5988249604       -3.8379320839
  C         9.4943222808        6.1841734936       -4.7941932989
  C        10.3193205128        7.2518004184       -4.3794551720
  C        10.2558559358        7.7667850191       -3.0386015469
  H        10.9667515258        8.5432124364       -2.7686702971
  H        10.9387144270        7.7878830543       -5.0984343068
  H         9.3582773184        5.8291886565       -5.8313070422
  H         8.0242580933        4.7888832978       -4.1330716541
  H         8.1304487438        5.6902137846       -1.7392115096
  C        15.7743657252        8.1136748633        1.5452377915
  C        14.8451332604        8.8221503277        2.3285230081
  C        13.7243375622        9.5023343412        1.6552794139
  C        12.7741444724       10.2497854628        2.3164039637
  C        11.6931939765       10.8023799839        1.6787441772
  C        14.8947009377        9.1590163577        3.7787560679
  C        15.6112751673       10.3134029492        4.1650404900
  C        15.5051892180       10.8400783418        5.4642537960
  C        14.5441321804       10.3493971202        6.3102173256
  C        13.7392895620        9.3166672853        5.8974012304
  C        13.9738566176        8.6761163513        4.6831629640
  H        12.8165924963       10.5019013527        3.3395438058
  H        10.9361345801       11.3198817419        2.2504898150
  H        16.3527507540       10.7856600534        3.5048768257
  H        16.0421748679       11.7419903898        5.8388498030
  H        14.5526556942       10.7013482008        7.3240876006
  H        12.9862087109        8.9725279967        6.5209054251
  H        13.2083619371        7.9278912923        4.4092608615
  C        15.7433046266        8.0855381007        0.0662087396
  C        16.7588689976        7.3674388986       -0.6576568231
  C        17.8350447048        6.8616522031        0.0653191788
  C        17.8682853259        6.8340958588        1.4932824357
  C        16.8101281543        7.3893052330        2.2291544345
  C        13.6083105718        9.3900679793        0.2287560559
  C        14.6369871263        8.7692631491       -0.5506831008
  C        14.6923461668        9.1712570173       -2.0144598273
  C        15.4265841952       10.2849480301       -2.3784915096
  C        15.3574840232       10.7621070827       -3.7116251730
  C        14.5683386434       10.1012147218       -4.6632471021
  C        13.7709702077        9.0149829423       -4.2869890195
  C        13.8353379309        8.5484831057       -2.9819164257
  H        13.2265511255        7.7152507110       -2.6608090194
  H        13.2061319847        8.3956161791       -4.9452438525
  H        14.5053163710       10.5805517305       -5.6919637386
  H        15.9679523651       11.5618799141       -4.1471143333
  H        16.1138498736       10.6699170732       -1.6434080065
  C        12.5466192478       10.0919891336       -0.4319417140
  C        11.5471927254       10.6958223320        0.3036756611
  H        10.7397630082       11.2408611453       -0.1534208957
  H        12.5166949678        9.9594345401       -1.5219180774
  C        16.7278551668        7.0109114331        3.6746726447
  C        15.7189351688        6.1350767948        4.0072697143
  C        15.5729268848        5.6863508080        5.3378495363
  C        16.4617894693        6.2361590908        6.3226663129
  C        17.4611424099        7.1672883338        6.0149884074
  C        17.5307778962        7.5983915892        4.6766462204
  H        18.3201592147        8.2532348245        4.3444713837
  H        18.0848561397        7.5445468797        6.8264603543
  H        16.3174734742        5.8865303129        7.3655854828
  H        14.7237465128        5.0802400299        5.5999306679
  H        15.2143282607        5.7492363140        3.1905891578
  C        19.0397249040        6.2559829830        2.1172191794
  C        20.0958070063        5.7899361003        1.4082421276
  C        20.0228565879        5.6898188415        0.0198199395
  C        18.9125713199        6.2067496542       -0.5927591076
  H        18.9733617426        6.1378069119       -1.6702959049
  H        20.7786790857        5.1173753701       -0.5248363254
  H        20.8785062061        5.2944391897        1.9386269403
  H        19.0932314395        6.3604254358        3.1945663576
  C        16.6226993469        7.0181528793       -2.1150664946
  C        15.6605648913        6.0402820280       -2.3959752691
  C        15.3646833270        5.6499653959       -3.7256712951
  C        16.1942936178        6.0281672001       -4.7216725903
  C        17.1643298469        7.0876494924       -4.4998735118
  C        17.3837607707        7.5203548808       -3.2515850389
  H        17.9488027149        8.3870726755       -3.0470230390
  H        17.7459407567        7.5445694597       -5.3030399594
  H        15.8528725919        5.9159500456       -5.7446825061
  H        14.6057316668        4.8426858589       -3.9019321038
  H        14.9719284407        5.6759629888       -1.6388900136
