140

  C         4.3001479011       -1.0585945180       13.8784882784
  C         5.2449372335       -0.3126054828       14.6578640043
  C         6.3340158537        0.3423103397       13.9837663550
  C         7.2819393503        1.1160286113       14.6762972207
  C         8.3302184882        1.7573578704       13.9833667004
  C         5.0285933901        0.1935229810       16.1104335872
  C         4.1049944253        1.2184877834       16.5520923154
  C         4.1882222499        1.8680723219       17.7873110711
  C         5.2841472145        1.5881751127       18.6360501500
  C         6.2062535535        0.6252667865       18.2703504453
  C         6.0675810866       -0.1209324925       17.0634443392
  H         7.2192454874        1.1559292143       15.7424273687
  H         9.0261636063        2.4199027446       14.4921755247
  H         3.4996165461        1.6671457014       15.7708379673
  H         3.3977522927        2.6127362039       17.9803300297
  H         5.3231785641        2.1128948582       19.6280070706
  H         7.1031418671        0.4076021105       18.9137785875
  H         6.7436899698       -0.9985878051       16.8546488456
  C         4.4159158419       -1.0784274333       12.4704443015
  C         3.2267023581       -1.5503053881       11.7995948392
  C         2.0015539413       -1.9464144769       12.4762358022
  C         2.0170401768       -2.1356094714       13.9278492369
  C         3.1694749111       -1.5437448210       14.5827840650
  C         6.4876226428        0.2391626215       12.5392562428
  C         5.3928869525       -0.2939702381       11.7952396291
  C         5.3732112842        0.0657408075       10.3333407670
  C         4.7154142318        1.1984190336        9.9424768356
  C         4.7670649528        1.6664941933        8.6234457827
  C         5.2804351160        0.8165511381        7.5643028520
  C         5.8170543485       -0.4113473702        7.9498185667
  C         5.8659053244       -0.7478259502        9.2837976286
  H         6.4278513554       -1.6494724634        9.5267331186
  H         6.1787935947       -1.2056004968        7.2671526635
  H         5.1644523876        1.0388452587        6.5212595611
  H         4.2828153667        2.6018189536        8.3872255849
  H         4.1759362658        1.7731428509       10.7461724517
  C         7.5781048683        0.9002821724       11.9194067676
  C         8.4512784109        1.6728420068       12.6251305190
  H         9.2562178063        2.1734454642       12.1485386995
  H         7.8230299744        0.6628967633       10.8646739070
  C         3.1837080138       -1.7951119422       16.0305523449
  C         3.9775993285       -2.8187689420       16.5834508410
  C         4.0113949054       -3.1050968565       17.9533537943
  C         3.0384447337       -2.5489021773       18.7791435972
  C         2.0973938711       -1.6684565934       18.2499293340
  C         2.1857773872       -1.2368533429       16.9010396459
  H         1.6012483844       -0.3898652390       16.5486764948
  H         1.2468453362       -1.1909568197       18.8100588259
  H         3.1316666407       -2.6559237023       19.8526344623
  H         4.8562610849       -3.6591594085       18.3161678361
  H         4.7809824378       -3.2236029199       15.9835241244
  C         0.8549606134       -2.7904069176       14.6003238506
  C        -0.1726924399       -3.2856626276       13.8614888043
  C        -0.1968199996       -3.0705206509       12.4356706206
  C         0.8121127477       -2.4266121060       11.8167663693
  H         0.6417522142       -2.1762887464       10.7616151879
  H        -1.0894194534       -3.3683594226       11.8966843631
  H        -1.0586121512       -3.7356735795       14.3660712924
  H         0.9096745457       -2.7528591969       15.6718985566
  C         3.1534220852       -1.9709972430       10.3136489224
  C         4.0032628225       -3.0205778415        9.8016255435
  C         3.9508481581       -3.3908636446        8.4681318133
  C         3.2920613359       -2.6538270840        7.5239777631
  C         2.3727657605       -1.6870419565        7.9653978606
  C         2.3279327120       -1.3357212878        9.3498454761
  H         1.7562742471       -0.4825551998        9.7206738649
  H         1.7119853270       -1.0745503126        7.3321768858
  H         3.4021649287       -2.8634210078        6.4888867473
  H         4.7359243876       -4.0963203909        8.1841156755
  H         4.6580171008       -3.5495169603       10.5113652018
  C        11.3636079321       -0.5545923378       14.0775324670
  C        12.3932108909        0.1623123299       14.7543628745
  C        13.3925187368        0.7256197707       13.9379317734
  C        14.4384337394        1.5058051570       14.4101141443
  C        15.4358661069        2.1542756996       13.6821571264
  C        12.4157989049        0.6115584287       16.2115139273
  C        11.5548305340        1.6703392040       16.5759156936
  C        11.6460240317        2.3187327125       17.8375098903
  C        12.4995860107        1.8087835888       18.8267435910
  C        13.3504557081        0.7677817555       18.4476117798
  C        13.3209240861        0.1491306793       17.2337124063
  H        14.5486624115        1.6922985948       15.5144849977
  H        16.2297541230        2.7112490581       14.1763923194
  H        10.8149310187        2.1037062757       15.9082045023
  H        10.9611791677        3.1602027133       18.1219349515
  H        12.5453080295        2.1847618290       19.8043728784
  H        14.0974646284        0.3861290798       19.1446994867
  H        13.9161108612       -0.7623206575       17.0795518692
  C        11.2696093512       -0.6364259611       12.6001988187
  C        10.2486944683       -1.3551242029       11.9606708109
  C         9.2004176457       -1.8790177945       12.7114919136
  C         9.2654798285       -1.8015991348       14.1501570525
  C        10.3722901372       -1.2089696442       14.8054072583
  C        13.3737399987        0.5419734450       12.4555280571
  C        12.2636644341       -0.0403819681       11.7819246483
  C        12.2237416431        0.2661526655       10.3000323391
  C        11.3775134546        1.2265806007        9.8393478749
  C        11.3714842069        1.6722598249        8.4920213372
  C        12.3345592652        1.1880290443        7.5879170769
  C        13.2369639937        0.1324697438        8.1019324242
  C        13.1276629236       -0.3070456417        9.4163385678
  H        13.8794429385       -0.9441479393        9.7661716452
  H        13.9259740808       -0.3161799079        7.3258427311
  H        12.3796275701        1.4670100151        6.5060274882
  H        10.7468176193        2.3699646568        8.0538240921
  H        10.6706058258        1.6693249631       10.5319959681
  C        14.4110220299        1.2460808620       11.7093454543
  C        15.3814540754        2.0119503166       12.2651350814
  H        16.0506390381        2.6368595479       11.7020358235
  H        14.3158409160        1.1972030617       10.6222070770
  C        10.5500363365       -1.5115504406       16.2725310099
  C        11.4835244021       -2.4965324000       16.6077972723
  C        11.4089591625       -3.0716531688       17.8940975581
  C        10.5355939770       -2.5643040237       18.9155600554
  C         9.6204575369       -1.5595408930       18.5441242474
  C         9.6674384284       -0.9983274699       17.2442648945
  H         8.9451892468       -0.2288123265       16.9620886543
  H         8.9249054589       -1.1736393395       19.2588418655
  H        10.6508039685       -2.9863952217       19.9389119233
  H        12.0571181580       -3.9221280045       18.1684744254
  H        12.1680172456       -2.8071288413       15.8690784550
  C         8.2416778788       -2.4564067624       14.9229109544
  C         7.2268742473       -3.1202856989       14.3298147309
  C         7.1828663275       -3.2658457997       12.9212369652
  C         8.1553199105       -2.6604603257       12.1778437922
  H         8.1391776678       -2.8286940065       11.1174212695
  H         6.3306355415       -3.8179900160       12.5053451176
  H         6.5126089210       -3.6599420832       14.9193189156
  H         8.3464602329       -2.4277601362       16.0279191921
  C        10.3274938842       -1.7493120805       10.5342651619
  C        11.1930878520       -2.7779138029       10.1293406555
  C        11.3613214717       -3.2305356736        8.8468212236
  C        10.4923963269       -2.7058502707        7.7821125248
  C         9.5436492170       -1.7522843670        8.1589981411
  C         9.4937506856       -1.2217643434        9.5122896736
  H         8.7163984449       -0.4838856449        9.7867085300
  H         8.8016509197       -1.4003750507        7.4514658743
  H        10.6134668283       -2.9365551605        6.7127809448
  H        12.1385326463       -3.9603587177        8.7565429428
  H        11.7856972923       -3.3819997709       10.8399832283
