140

  C        12.1162610461        6.5366760300        0.5013355318
  C        11.0227667745        7.2471444317        1.1408162085
  C         9.9201232643        7.7786148058        0.3750175115
  C         8.7668918566        8.3006153299        1.0224201172
  C         7.7827496615        8.8791761374        0.2660210644
  C        11.0022684595        7.4698642684        2.6065900498
  C        11.8628571898        8.3985793302        3.1776024952
  C        11.8732002577        8.5768293002        4.5614484049
  C        10.9700849718        7.8299992524        5.3718439208
  C        10.0038971356        7.0502448261        4.7766337762
  C        10.1540684580        6.7685354542        3.3922157329
  H         8.7133278447        8.2431758738        2.1003208662
  H         6.8236504573        9.2195958598        0.7119798461
  H        12.3904300779        9.1445092818        2.5910019527
  H        12.6986339601        9.2340881017        5.1500013593
  H        11.0766043860        7.8750297007        6.4098533886
  H         9.2771653446        6.4320122369        5.3818870450
  H         9.5438604243        5.9947951723        3.0880373579
  C        12.1291054909        6.4167345604       -0.9562842520
  C        13.0319427218        5.5889309729       -1.6689646983
  C        14.1290824686        5.0180537290       -0.9650696933
  C        14.1368357403        5.1292701725        0.4076600521
  C        13.0978172327        5.7938307729        1.1852970698
  C        10.0215377641        7.7334328138       -1.0532546653
  C        11.1323903687        7.1167679347       -1.7518860983
  C        11.2199222868        7.4346264180       -3.2278687986
  C        11.8942805004        8.6177679230       -3.6050265657
  C        11.7961353498        9.0159322135       -4.9394657614
  C        11.0329350236        8.3942958439       -5.9370326899
  C        10.4651341505        7.1736376283       -5.5245375604
  C        10.5251520530        6.7341815034       -4.2151342778
  H        10.0082615594        5.7658456257       -4.0806475063
  H         9.9016003415        6.6700666444       -6.2713662239
  H        10.8825997796        8.8409212459       -6.9667810722
  H        12.3094453559        9.9530076375       -5.3086051780
  H        12.4574958611        9.1275205376       -2.8650247828
  C         8.9527804674        8.3616399616       -1.7989366614
  C         7.9106148297        8.9516141277       -1.1417907083
  H         7.0580522788        9.2011299929       -1.7527160636
  H         9.0808189910        8.4653946726       -2.9173087653
  C        12.9405606360        5.3011754212        2.6010628358
  C        12.0540618979        4.2424448480        2.9328885268
  C        11.9796408517        3.6682769044        4.2436614651
  C        12.7462582758        4.2520599317        5.2501812518
  C        13.5693000321        5.3338847770        4.9721498278
  C        13.7155999646        5.8071849093        3.6826842223
  H        14.5355383247        6.5226243450        3.5006811433
  H        14.2119306858        5.7142022324        5.7310066142
  H        12.6447203475        3.8559112326        6.2609776791
  H        11.3561358349        2.8061496826        4.4658991541
  H        11.4148277464        3.9138577619        2.1203909246
  C        15.1580826920        4.4393489264        1.0919109660
  C        16.1816454495        3.7320064100        0.4670977080
  C        16.0746014739        3.5765817070       -0.9460316696
  C        15.1402932041        4.2344898240       -1.6327843163
  H        15.0840519118        4.1195062941       -2.7015878653
  H        16.8186403646        3.0492505902       -1.5424420423
  H        16.9568595484        3.3643890335        1.0929116989
  H        15.1301885043        4.5343189619        2.1992182740
  C        12.8676794242        5.2137334873       -3.1635660327
  C        12.2010103623        4.0089240549       -3.5143026261
  C        12.3058808375        3.5359079818       -4.8448665237
  C        12.9593340705        4.2966007473       -5.8311416866
  C        13.5743236772        5.5000451220       -5.5164587793
  C        13.6282213630        5.9059660360       -4.1261560789
  H        14.3307631124        6.7120895027       -3.8432948495
  H        14.1438063678        6.0322606731       -6.2390773737
  H        12.9520263204        3.9255425510       -6.8733556554
  H        11.6972522801        2.6812416471       -5.1299415084
  H        11.6095450998        3.5592343680       -2.7825415930
  C        19.1025727898        6.1899722543        0.5399655585
  C        18.0801297877        6.9301710449        1.2483184298
  C        17.0137847181        7.4837600639        0.5555564559
  C        16.0023151960        8.2814378418        1.2492639840
  C        14.8861183462        8.7424770539        0.6158899196
  C        18.1595832090        7.2405241625        2.7089283870
  C        18.8361804487        8.4833062832        3.0073680906
  C        18.6203848231        9.0455173015        4.2706708947
  C        17.9099680676        8.3231138947        5.2643916987
  C        17.4621005438        7.0637030554        5.0072659033
  C        17.5321607515        6.5606618825        3.6899594874
  H        16.1466046509        8.4675364249        2.3200003820
  H        14.1101240203        9.2798699802        1.1375359484
  H        19.3928626448        8.9797313506        2.2171049277
  H        19.0352166306       10.0555421998        4.3563158578
  H        17.8146230991        8.7056523646        6.2816551362
  H        16.8568467518        6.5130566361        5.7259737520
  H        16.9865508698        5.6250625271        3.5781940482
  C        19.0881975016        6.1698553147       -0.9401490299
  C        20.1771459455        5.5174618123       -1.5795517317
  C        21.2408152264        4.9095692756       -0.8719948524
  C        21.2057547909        4.8911790882        0.5622039856
  C        20.1590410881        5.5228827486        1.2703980282
  C        16.9437076073        7.3839884841       -0.9026024965
  C        18.0303453625        6.8685489107       -1.6794896350
  C        18.2598369196        7.2184843083       -3.1189499956
  C        19.0707665719        8.3725196085       -3.4394209470
  C        19.0426576840        8.8376144151       -4.7733804899
  C        18.3056200940        8.1506962744       -5.7924799684
  C        17.4922494758        7.0562728175       -5.4520641697
  C        17.5031425437        6.6319693863       -4.1288189011
  H        16.8315482977        5.8239671268       -3.7790821506
  H        16.8379642087        6.6405227891       -6.1602789721
  H        18.2718537646        8.6532165319       -6.7493986399
  H        19.4300967475        9.8151205694       -5.0832896238
  H        19.6431396790        8.8769153669       -2.7584652369
  C        15.7777114430        7.9179416636       -1.4728364527
  C        14.7492305640        8.4759147444       -0.7761039454
  H        13.8444781393        8.6184428346       -1.3283557689
  H        15.6040689457        7.8080116209       -2.5210074907
  C        20.1017605532        5.2688769226        2.7634916793
  C        19.5521190519        4.0914881290        3.2819847304
  C        19.5398681669        3.8961717859        4.6537302664
  C        20.1405087101        4.7897594054        5.5673701151
  C        20.8149902171        5.9011304644        4.9890683641
  C        20.8848112680        6.0907096439        3.6335730656
  H        21.4022008354        7.0284421195        3.2936361366
  H        21.1720467041        6.7134892234        5.6217118040
  H        20.0138808318        4.6659054828        6.6032787056
  H        18.9815056594        2.9929624947        5.0318449415
  H        19.1178722935        3.3475528833        2.6300678693
  C        22.2088693115        4.1817455099        1.2976749881
  C        23.3415905688        3.7028759372        0.6763170662
  C        23.3760334756        3.6247087240       -0.7458789022
  C        22.3427448074        4.2403764328       -1.4933565858
  H        22.1780450043        3.9258627545       -2.4970893927
  H        24.1499876191        3.1551974670       -1.2818372892
  H        24.1586812555        3.2223127548        1.2038652297
  H        22.0256164579        4.0423915855        2.3384179498
  C        20.0676114798        5.1050714236       -3.0368470734
  C        19.1629731097        4.0318886216       -3.2813045839
  C        19.0083468106        3.4473132516       -4.5427242325
  C        19.9438902251        3.8954267149       -5.5677003127
  C        20.8369723816        4.9492882492       -5.2839264268
  C        20.8828921008        5.6305393602       -4.1096546046
  H        21.4736419409        6.5513211947       -3.9281058412
  H        21.5630822490        5.2954019854       -6.1140221990
  H        19.9511939888        3.3518281172       -6.4952607894
  H        18.3301069534        2.6680274570       -4.7246003006
  H        18.5492094494        3.6322540348       -2.4352204815
