140

  C        10.3866013645        6.9201004676        0.8742131225
  C         9.4287530124        7.7152728497        1.5616923039
  C         8.4316691660        8.2705185748        0.8070324544
  C         7.3742699647        9.0494039006        1.3957095550
  C         6.4213401737        9.7718229673        0.6874745773
  C         9.4883049773        8.1683923366        2.9400437707
  C         9.9739837971        9.4916086561        3.2667879625
  C         9.8923448791       10.0038904270        4.6435455115
  C         9.1653500697        9.3387538851        5.6064459393
  C         8.7284620754        7.9774186144        5.3897007906
  C         8.8358181735        7.4998910336        4.0448959947
  H         7.1730369843        8.9344647806        2.4868513752
  H         5.5741945113       10.3067415727        1.1998964792
  H        10.4913471089       10.1054990113        2.5958394609
  H        10.4547957028       10.9635280702        4.8325080050
  H         9.1676890835        9.6422436420        6.6866377600
  H         8.2645027277        7.3464285028        6.1409395411
  H         8.4554993103        6.4785893370        3.8853974019
  C        10.4895869349        7.0026223356       -0.5997522934
  C        11.5672805195        6.3385315945       -1.2066571770
  C        12.7757349669        5.9526216741       -0.5566743954
  C        12.7024541893        5.9313029320        0.8727260159
  C        11.5119648052        6.2416587497        1.5586202559
  C         8.4486486021        8.3810770208       -0.6194679857
  C         9.5236375837        7.7718630634       -1.3075472014
  C         9.7212730685        8.1951888011       -2.7727111404
  C        10.7467577973        9.1179721813       -3.2316208043
  C        10.8379157764        9.8014946071       -4.4923797774
  C         9.9538321219        9.3024142664       -5.4504113818
  C         8.9637337294        8.3734116688       -5.1231437440
  C         8.9149330890        7.7949827614       -3.8355376015
  H         8.2612612877        6.9414022326       -3.7365216643
  H         8.2884606834        8.0202776410       -5.8543335302
  H         9.9725712010        9.6366242043       -6.4296197715
  H        11.6077926295       10.5143356161       -4.7214580181
  H        11.5563575301        9.3265794061       -2.4975134809
  C         7.4612888757        9.1304676452       -1.3088450475
  C         6.5048563707        9.8922958921       -0.7364182404
  H         5.8376105779       10.4817200898       -1.3147502359
  H         7.5090662454        9.1394461104       -2.3598011616
  C        11.3336737132        5.7946149545        2.9787974245
  C        10.7949985288        4.5800352884        3.4896210919
  C        10.8214259907        4.3247373217        4.8666090136
  C        11.3880872170        5.2125261961        5.7803415720
  C        12.0056802360        6.3560961285        5.2442893824
  C        11.8867356551        6.6957889524        3.8934949394
  H        12.1873094906        7.7148433569        3.5799558688
  H        12.3086723875        7.2381279484        5.8076800497
  H        11.4664869880        5.0663428129        6.8693951573
  H        10.3376871272        3.4995376572        5.3337118990
  H        10.1529512489        3.8557676617        2.9244550844
  C        13.8927421557        5.4742466159        1.5939106635
  C        15.0100250207        4.9601235288        0.9004802769
  C        14.9501754521        4.8831494462       -0.4748130017
  C        13.9149996732        5.3416965664       -1.1980483270
  H        13.9474776207        5.3582472965       -2.2673536595
  H        15.7530045629        4.3887885878       -1.0292525961
  H        15.9721104657        4.7940825273        1.3740556045
  H        14.0154073686        5.4536687351        2.7067502138
  C        11.3561717983        6.0842413162       -2.6988489618
  C        10.4128422709        5.1302466611       -2.9990890820
  C        10.2320604968        4.6460637816       -4.3363443015
  C        11.1562625592        5.0205836861       -5.3285405719
  C        12.2622095350        5.7729226490       -4.9760702217
  C        12.3266286768        6.3957342253       -3.7205037095
  H        13.0848119461        7.2054732147       -3.4081050101
  H        13.1009419099        5.8922333195       -5.6632593614
  H        11.0824413758        4.5405555404       -6.2873257462
  H         9.4962670300        3.9392591816       -4.6369288752
  H         9.6971546630        4.8731189781       -2.2658646381
  C        17.5364445235        7.2029056878        1.4985634059
  C        16.5269601990        8.0041230838        2.1079747293
  C        15.4766444024        8.6013068243        1.3505740704
  C        14.2809956725        9.1524224786        1.9242966011
  C        13.3563418504        9.7447699538        1.1171817599
  C        16.5387769069        8.2483736358        3.5741576690
  C        17.5491574075        9.1850414142        3.9131294510
  C        17.5912494792        9.5514567739        5.2563318519
  C        16.7145958631        9.0868459664        6.2023723011
  C        15.8005599536        8.1019616787        5.8695175757
  C        15.6678434088        7.7124535094        4.5237853345
  H        14.1523937914        9.1109068898        2.9676453513
  H        12.5218355308       10.2495580238        1.5395812541
  H        18.2780786045        9.4921551760        3.1211060709
  H        18.2121349788       10.3928382644        5.5786947361
  H        16.6220411301        9.4243301927        7.2302415870
  H        15.0742410359        7.7480521362        6.6278791782
  H        14.9807973418        6.8968717882        4.3116209082
  C        17.6861080483        7.3460560644        0.0320828748
  C        18.7944971364        6.7621204742       -0.6439827141
  C        19.8283950228        6.2297359558        0.0834000550
  C        19.7219595966        6.0309089658        1.4480565812
  C        18.5496532096        6.4604257725        2.1526556470
  C        15.5731550906        8.6381934793       -0.1549767140
  C        16.7078647804        8.0491717718       -0.7796207911
  C        16.8984342976        8.3477940589       -2.2258635938
  C        17.8478565963        9.3250702251       -2.5861403585
  C        17.9855832288        9.7550239794       -3.9520014228
  C        17.0095899629        9.4078752663       -4.8689125028
  C        16.0210997217        8.4349242794       -4.5588584773
  C        15.9859963760        7.9185645108       -3.2350191701
  H        15.2688074705        7.1386307845       -3.0281944518
  H        15.2539684003        8.0697028973       -5.3110618687
  H        17.0484957337        9.8310252607       -5.8767083629
  H        18.7828374914       10.4963039231       -4.1690528178
  H        18.3440727302        9.8371176907       -1.7967241366
  C        14.5219631060        9.3104874689       -0.8861152990
  C        13.4306736166        9.8056831850       -0.2693293430
  H        12.6570751066       10.2890059376       -0.8442077973
  H        14.4445185757        9.3516586573       -1.9466973555
  C        18.3926435117        6.1024785017        3.6176599366
  C        17.3710600046        5.2030536128        4.0000671509
  C        17.2368327962        4.7772225805        5.3433528094
  C        18.1224536483        5.1538338778        6.3389632673
  C        19.1902451868        6.0036549042        5.9728674356
  C        19.2524605113        6.4980909138        4.6364089720
  H        20.1089804072        7.0943441821        4.3829543194
  H        19.9829103330        6.2853261004        6.6714597931
  H        18.1482263745        4.6859256859        7.3167664097
  H        16.4390782943        4.0299673977        5.5725158149
  H        16.7019455536        4.8327288738        3.2486015562
  C        20.7679350070        5.2979298233        2.1004290664
  C        22.0291830872        5.0934767567        1.5392330602
  C        22.1112457012        5.3663500595        0.1408445538
  C        20.9936465842        5.8107221043       -0.5675107357
  H        21.0426966795        5.9050609676       -1.6310038394
  H        22.9638385668        5.1907211238       -0.5381462643
  H        22.8247025878        4.5608204581        2.0657848928
  H        20.5928850321        5.0977083787        3.1494070645
  C        18.6822718597        6.3747439262       -2.1817035457
  C        17.8586923756        5.2433322815       -2.5050496227
  C        17.6015082938        4.9857017996       -3.8293353665
  C        18.3675587239        5.5252725658       -4.8800205461
  C        19.4150211435        6.4636231686       -4.5507431386
  C        19.4516923385        6.9167635388       -3.2227659670
  H        20.1373838214        7.7446515167       -2.9947172191
  H        20.1122341336        6.7631304714       -5.3226385171
  H        18.1466638899        5.2814733044       -5.9114528639
  H        16.9432509275        4.2127385213       -4.1178681014
  H        17.3916292960        4.6479587561       -1.6968521199
