140

  C        12.2773351873        7.1277242706        2.3632121936
  C        11.2155123571        7.7506629674        3.0969265523
  C        10.0866850599        8.2938949134        2.4223857642
  C         8.9974231676        8.9650799065        3.0560303763
  C         7.8591460564        9.3517772749        2.3545695020
  C        11.2780184701        8.0790679066        4.5042965936
  C        11.9573086548        9.2580276727        4.9248391497
  C        11.9400484468        9.6697105847        6.2433275039
  C        11.2160888626        8.9713713181        7.1339989037
  C        10.5461592770        7.7957450458        6.7947290394
  C        10.6157070961        7.3355053351        5.4913618264
  H         9.0763894586        9.2627263073        4.1123662674
  H         7.0170074074        9.7351500394        2.9682841770
  H        12.5148995911        9.8383169626        4.1342928903
  H        12.4432548792       10.5887690592        6.6235528351
  H        11.2727689326        9.2539295897        8.1944489018
  H        10.0717417853        7.1213299595        7.4821713344
  H        10.1276734045        6.4137119984        5.1074324191
  C        12.2524709146        7.2197836788        0.9028555762
  C        13.3651971185        6.5780225733        0.2088334336
  C        14.4676761184        6.0406564363        0.9095272311
  C        14.4759669258        6.0422626667        2.3661973643
  C        13.3319266889        6.4417649775        3.0434277023
  C        10.0600960428        8.2763745164        0.9820824028
  C        11.1686978368        7.8185940432        0.1761361768
  C        11.3357647493        8.1920289242       -1.2244086440
  C        12.1529759091        9.2278032945       -1.6167356479
  C        12.0433424183        9.6326893478       -2.9566840358
  C        11.2634640176        8.8748295883       -3.8957279988
  C        10.5866633409        7.7681107961       -3.5067701738
  C        10.6546387306        7.4151235276       -2.1713327216
  H        10.0297326271        6.6178524702       -1.8150112910
  H         9.9791523118        7.3413702988       -4.2969521027
  H        11.1352140039        9.1751906430       -4.9464359286
  H        12.6014941444       10.4938028382       -3.3164912830
  H        12.6984385687        9.7573630441       -0.8679345449
  C         8.9007119633        8.8480234579        0.2874730033
  C         7.7742247779        9.1791672658        0.9746049335
  H         6.8507216855        9.4493656539        0.4386589428
  H         9.0518390925        8.9585171252       -0.7540834718
  C        13.3307928478        6.1323555636        4.5003731049
  C        12.6641386730        4.9917217155        5.0409110449
  C        12.8380618137        4.8581380353        6.4115789078
  C        13.7141078610        5.6463071379        7.1951638400
  C        14.3128634947        6.7965216920        6.6418218551
  C        14.0512090118        7.0566674151        5.2833030600
  H        14.5696475107        7.8522186798        4.8236542095
  H        14.8622322539        7.4888285195        7.2068054900
  H        13.9274463981        5.3422655910        8.2407108193
  H        12.2770598465        4.0576245011        6.8687941318
  H        12.0542743818        4.3665143965        4.3909696478
  C        15.6768005426        5.4690310514        2.9749635504
  C        16.6727985915        4.8373469496        2.2933835204
  C        16.5438557815        4.6839670795        0.8881161836
  C        15.4610185820        5.2691391350        0.2470045000
  H        15.3685744058        5.0631453025       -0.8256328818
  H        17.1497973549        4.0237931939        0.2417029482
  H        17.5737506974        4.4849615037        2.8445258525
  H        15.6988258248        5.5728746817        4.0727597820
  C        13.1856944585        6.1553801765       -1.1740856215
  C        12.2310510764        5.1431259593       -1.4220827142
  C        12.1046959897        4.5101772524       -2.6841961731
  C        12.8324043372        5.0545588944       -3.7515178192
  C        13.8097570968        6.0614516943       -3.5868557998
  C        13.9861005876        6.5367192621       -2.2821535923
  H        14.6890355848        7.3809604626       -2.1544657972
  H        14.2529779550        6.5005392481       -4.4827919653
  H        12.7125285451        4.5987892868       -4.7565701319
  H        11.3419040843        3.7509856235       -2.8596781305
  H        11.5401717108        4.7485078648       -0.6892574883
  C        19.4850417952        7.2053429822        2.8063666023
  C        18.4962176279        7.9805036186        3.4853034110
  C        17.4598136984        8.6275691530        2.8292664641
  C        16.4562689684        9.5027982890        3.4082934329
  C        15.3639644734        9.8776138815        2.7026551412
  C        18.6629521872        8.3291473525        4.9076239420
  C        19.7131795565        9.2318883701        5.2527128953
  C        19.5811039527        9.8642152304        6.4876584643
  C        18.6698029481        9.4354686310        7.4263946110
  C        17.7224345296        8.3972489769        7.1332271470
  C        17.7734147773        7.8218388614        5.8816549901
  H        16.4064814723        9.6576860955        4.4672115137
  H        14.5256703954       10.2851745950        3.3162118072
  H        20.5137208786        9.5296956984        4.5831077710
  H        20.3489631525       10.5751374411        6.8387398603
  H        18.5315073566        9.9867361763        8.3568843086
  H        17.1402827295        8.0392855509        7.9408051307
  H        16.9652754906        7.1768215892        5.5501138065
  C        19.6060116410        7.2779781718        1.3163839756
  C        20.6214996242        6.6014068721        0.5922584632
  C        21.6846527094        6.0976058731        1.3936993566
  C        21.6161030912        6.0293728259        2.8469997657
  C        20.4383701507        6.4947890606        3.4928607812
  C        17.4781212082        8.5664572897        1.3243307565
  C        18.5963639015        7.9663017806        0.6903426582
  C        18.6488654322        8.1907071170       -0.8382316888
  C        19.4308506965        9.2011150006       -1.4399399832
  C        19.3444524599        9.5944466806       -2.7802653441
  C        18.5617256720        8.8695282072       -3.6792535706
  C        17.8989148215        7.7468177716       -3.1350857202
  C        17.8886045949        7.4271180070       -1.7730766788
  H        17.1662987882        6.7210290142       -1.3923815027
  H        17.3084641870        7.0990410816       -3.7466596527
  H        18.5564527495        9.1694638115       -4.7271248567
  H        19.9517849319       10.4302194090       -3.1318677505
  H        20.2252714627        9.7630532502       -0.9407810183
  C        16.3861976573        9.1579635547        0.6510601348
  C        15.3257369998        9.7173837992        1.3191648856
  H        14.4532852877       10.0207271007        0.8250278993
  H        16.3723199372        9.2126771927       -0.4401799091
  C        20.2713369803        6.0939545839        4.9334852970
  C        19.4193849513        5.0489704365        5.2178975907
  C        19.3070344664        4.5782269987        6.5153514121
  C        20.0231319666        5.1529923907        7.5182625189
  C        20.9964567676        6.1072300426        7.3247450669
  C        21.0926090918        6.5919270101        6.0243127864
  H        21.9494855699        7.2616262796        5.7742263859
  H        21.5995517532        6.4618049498        8.1907315259
  H        19.8483360609        4.8525098456        8.5649436516
  H        18.5013580487        3.8708725468        6.7379145682
  H        18.7413859856        4.6280031124        4.4465947849
  C        22.5764356276        5.1127672333        3.5023683584
  C        23.5191662023        4.4498122272        2.7369906631
  C        23.5857805146        4.5116157767        1.3654610197
  C        22.6668952422        5.3091401956        0.6850433468
  H        22.7082035835        5.4960415416       -0.4120130798
  H        24.2732092114        3.9746491955        0.7249855025
  H        24.3323678054        3.8755129772        3.2667429565
  H        22.6154124173        5.1218534842        4.5849625599
  C        20.4914792889        6.0925154248       -0.7745917512
  C        19.7320742262        4.9210658982       -0.9359002718
  C        19.7010131313        4.3237749048       -2.2378034089
  C        20.2181095517        4.9312523219       -3.3618088282
  C        20.9936547560        6.1040603918       -3.1337108435
  C        21.0981423206        6.7083798042       -1.8729225411
  H        21.7951262295        7.5791820069       -1.8343062124
  H        21.6241548671        6.4785999252       -3.9485633384
  H        20.1917233819        4.4533046457       -4.3448132459
  H        19.2654744243        3.3484021085       -2.4631044437
  H        19.0794675005        4.5711780647       -0.0823334191
