140

  C         9.1242152835        8.1132157671        1.4062482370
  C         8.0298352557        8.9092769087        2.0308551812
  C         6.9075232524        9.3075462298        1.3050000621
  C         5.7195144395        9.9476239684        1.8822020952
  C         4.6778084200       10.3245963643        1.1111940217
  C         8.0861153022        9.2570574818        3.5146608142
  C         8.8688951573       10.2629690987        4.0339859790
  C         8.7370072412       10.6289019990        5.3550786674
  C         7.9090273620        9.8892104650        6.2149781258
  C         7.2181942253        8.7887503091        5.7334389619
  C         7.2949993224        8.4142825965        4.3697303673
  H         5.7212410649       10.2253446604        2.9430997980
  H         3.7961561046       10.8126568965        1.5346955189
  H         9.5203095802       10.7832149290        3.3600875105
  H         9.2133326655       11.5396321482        5.7734048600
  H         7.7729868207       10.2241089066        7.2683023109
  H         6.7369409653        8.1613739610        6.5162229871
  H         6.6340226350        7.7150385139        3.9155308986
  C         9.1564283870        8.0131978261       -0.1119548746
  C        10.0381815147        7.0942529929       -0.8017673702
  C        11.1408664123        6.5938364170       -0.0092600570
  C        11.1512569384        6.7858384756        1.4527159819
  C        10.0456297716        7.3318462705        2.1305943635
  C         6.9869023224        9.1834509143       -0.1646936312
  C         8.1221330665        8.6895701422       -0.8502292107
  C         8.2504402360        8.8635059849       -2.3541030370
  C         9.0363416235        9.9779983959       -2.7240931953
  C         9.1037081295       10.3814230670       -4.0373730927
  C         8.2636886185        9.8043251413       -5.0264456667
  C         7.3832524494        8.7391110686       -4.6322538631
  C         7.4115751744        8.2360626032       -3.2411686247
  H         6.6960901129        7.4789072370       -2.9767666672
  H         6.8310914973        8.1373085258       -5.3778019467
  H         8.3106307582       10.1128524900       -6.1120272976
  H         9.6792276158       11.2433148294       -4.2002882944
  H         9.6373037260       10.3980892680       -1.9300922362
  C         5.8980883903        9.8160659726       -0.9063985637
  C         4.7311713287       10.2449977497       -0.3125059012
  H         3.8936551540       10.6636248519       -0.8940896599
  H         5.9723992196        9.7724826818       -1.9940947463
  C         9.8943989595        7.0268242767        3.6375548657
  C         9.2133415786        5.8347483388        4.0078363670
  C         9.1949457401        5.3666986434        5.2813195840
  C         9.9261463044        6.1073028692        6.2487725532
  C        10.5807460805        7.2686688140        5.8950713796
  C        10.5905303729        7.7833297449        4.5832441250
  H        11.2756980230        8.6214420754        4.3378019966
  H        11.0861500597        7.9006157028        6.5982714881
  H        10.1120869379        5.7783434012        7.2862365098
  H         8.6276230832        4.4713276209        5.6483712510
  H         8.7535623281        5.3059759329        3.1618057497
  C        12.2547647896        6.2076810521        2.1873485691
  C        13.2610905941        5.4907391901        1.5250168514
  C        13.2064386413        5.1997853555        0.1029199091
  C        12.1516279386        5.7572985443       -0.5585645615
  H        12.1411797924        5.6484102617       -1.6261906144
  H        13.9867758799        4.6882924041       -0.4857842158
  H        14.1321694858        5.0497819298        2.0794326190
  H        12.4179851010        6.3880815227        3.2426954987
  C         9.9927037748        6.6830399482       -2.2249898161
  C         9.2502558479        5.5711485270       -2.6685173473
  C         9.4264285432        5.0300862220       -4.0163705612
  C        10.2348004759        5.6177084121       -4.9878803187
  C        10.8671671671        6.7890053340       -4.5755936605
  C        10.7892225184        7.3132347422       -3.2679113717
  H        11.4823535173        8.1440123433       -2.9734285095
  H        11.6558154490        7.2443839547       -5.2433942954
  H        10.3819973563        5.2130844961       -6.0225975390
  H         8.8867737441        4.1401432291       -4.2508188985
  H         8.5295142011        5.0754396361       -2.1028953687
  C        16.0867432979        7.9748368132        1.5088345116
  C        15.0644037686        8.6470290907        2.2066273932
  C        14.0190119218        9.1490106067        1.4802245959
  C        12.9428730600        9.9000140842        2.1389471247
  C        12.0568888085       10.6313407715        1.4137634945
  C        15.1171614387        8.9176596162        3.6723785735
  C        15.8038413936       10.0281869598        4.1973960774
  C        15.7458922216       10.2813149119        5.5884370848
  C        14.9241486500        9.4969831235        6.4195507934
  C        14.2302359901        8.3879893174        5.8693947480
  C        14.2672909899        8.1929040346        4.4832868248
  H        12.8539106075        9.9597539916        3.2162170255
  H        11.2698562334       11.1854637130        1.9330199316
  H        16.2404458093       10.7054860638        3.4698627047
  H        16.4049916018       11.0720398007        5.9097576215
  H        14.8161714337        9.6593837913        7.4946202215
  H        13.5703961642        7.8397574675        6.5174109765
  H        13.5570341944        7.4837534892        4.0952154813
  C        16.1041682231        7.8540500269        0.0211541367
  C        17.1824674355        7.1889934443       -0.6547061477
  C        18.2489894941        6.6764145193        0.0398866943
  C        18.3006596013        6.7212225163        1.4972753839
  C        17.2069628211        7.2403661794        2.2235787798
  C        13.9945863656        9.1193489367        0.0206282094
  C        15.0285643309        8.5338724569       -0.7060231864
  C        15.0702034238        8.7778007649       -2.2169079785
  C        15.7219579341        9.9231238317       -2.7156623617
  C        15.6653715473       10.2973202360       -4.0507420793
  C        14.7238153467        9.6022019813       -4.8079051923
  C        14.0501225253        8.4425958250       -4.3749754691
  C        14.2063958986        8.0232399865       -3.0313014405
  H        13.6311834794        7.2073282690       -2.5687365774
  H        13.4703419099        8.0075804336       -5.1336851721
  H        14.4500992651        9.9859637399       -5.7924949291
  H        16.1644225891       11.2274026344       -4.4589867207
  H        16.3567216594       10.4084606546       -1.9774191620
  C        12.9800087407        9.9127843925       -0.6684162245
  C        12.1108906091       10.7374759503       -0.0004630193
  H        11.3965591001       11.3237297842       -0.6062663463
  H        12.8366133507        9.8458499770       -1.7364219939
  C        17.1583517332        6.9964870816        3.6622592886
  C        16.5670836631        5.9230571533        4.3378660018
  C        16.7382698537        5.6592510680        5.6963299018
  C        17.5746771862        6.4443810552        6.4371227562
  C        18.3017205188        7.4302780359        5.8462528103
  C        18.1091161066        7.7351357263        4.5029580165
  H        18.7727549687        8.4286865002        4.0562208561
  H        18.8896683434        8.1276440690        6.4656132178
  H        17.7321600677        6.1611387786        7.4764575378
  H        16.0660573119        4.9509709488        6.1937221322
  H        15.8629869117        5.2669237298        3.7786449503
  C        19.5015995937        6.2316325985        2.1834712489
  C        20.5232149347        5.6982915453        1.4431820323
  C        20.3409570298        5.5037584552        0.0079840065
  C        19.2557272780        5.9326899238       -0.6822142089
  H        19.0498807603        5.7189373903       -1.7055037190
  H        21.0994132238        4.9953713951       -0.5390610536
  H        21.4977740029        5.4917694674        1.8797397583
  H        19.5815723559        6.3923272668        3.2696125446
  C        17.0792217092        6.7940703943       -2.1319720943
  C        16.2779461818        5.6551940930       -2.5195141606
  C        16.4047463616        5.1505614829       -3.8176171984
  C        17.1413279608        5.8493155873       -4.8000047926
  C        17.7783384543        6.9824480785       -4.4759078668
  C        17.8589831256        7.3579105591       -3.0882583562
  H        18.4201950870        8.2710460425       -2.8167638769
  H        18.3991479246        7.3315418664       -5.2643060754
  H        17.2077043645        5.4523536467       -5.7977682899
  H        15.9995643698        4.1695829029       -3.9428905286
  H        15.6018050477        5.1720257340       -1.8332338651
