140

  C        12.0663467403        6.4076996102        0.4637015066
  C        10.9612553993        7.0055330404        1.1087483558
  C         9.8643412038        7.5869391572        0.4457959273
  C         8.7499555793        8.2205314056        1.0890050350
  C         7.7405565601        8.7921258828        0.3910224402
  C        11.0310319452        7.3815235333        2.5513403963
  C        11.8366018138        8.4838870866        2.9598684175
  C        11.6901068765        9.0319448511        4.2369536862
  C        10.8808501441        8.3436423457        5.2020375297
  C        10.1156206062        7.3253206127        4.8031925507
  C        10.1899563126        6.8030034704        3.5270109394
  H         8.8434013063        8.3223986710        2.1709473716
  H         7.0046441180        9.3838921950        0.8818963805
  H        12.4263295841        8.9096646066        2.1752456518
  H        12.3572381858        9.7714307450        4.5092171907
  H        10.8135531988        8.7840250325        6.1752385132
  H         9.3603194262        6.9152467917        5.4438189978
  H         9.6015302888        5.9239091130        3.1803025507
  C        12.0630847976        6.4199112400       -1.0583948567
  C        13.1211686076        5.7857675930       -1.7317613672
  C        14.1707463217        5.1593195533       -1.0044889031
  C        14.1826363305        5.1578741442        0.4811259716
  C        13.0795859534        5.6861462807        1.1519077592
  C         9.8005162033        7.5005433973       -1.0429794337
  C        10.9771295021        7.0442198888       -1.7359403403
  C        11.0543548943        7.4038713160       -3.1638114124
  C        11.7510725125        8.5784711671       -3.4347088183
  C        11.7054301528        9.1692067355       -4.7218679633
  C        10.9168704501        8.5980968212       -5.7154440660
  C        10.3245492022        7.3629050790       -5.4879205808
  C        10.2452667459        6.7900644008       -4.2248287706
  H         9.7051271152        5.8599141183       -4.1212062594
  H         9.7419868802        6.9879010363       -6.3382495909
  H        10.8383276375        9.1255454391       -6.6455595609
  H        12.2560587331       10.0558461810       -4.7689630355
  H        12.3420166899        9.0520438713       -2.5595962980
  C         8.6349363310        7.9482490588       -1.7128299420
  C         7.6914534882        8.6636565229       -1.0180422502
  H         6.8198748271        9.0563882453       -1.5519129534
  H         8.6312115632        7.8800574138       -2.7590679453
  C        12.9821557388        5.1710678131        2.5202318917
  C        12.1089511325        4.1296397558        2.8012338731
  C        12.0081715686        3.5053347464        4.0415271218
  C        12.8961774383        3.9163814456        5.1196594438
  C        13.7728849534        4.9133774194        4.7177044400
  C        13.7553564671        5.5721340652        3.5675625481
  H        14.4155101838        6.4239470260        3.4621969803
  H        14.4368882816        5.1924945018        5.5403256347
  H        12.9970596236        3.3681461959        6.0915781425
  H        11.4431357065        2.5738260837        4.0727024930
  H        11.4602245076        3.8415562074        1.9565224144
  C        15.1917319088        4.4252320291        1.1903721882
  C        16.2429505865        3.7684658773        0.5570542357
  C        16.2848491675        3.7795248649       -0.8371019344
  C        15.2733891349        4.3855942700       -1.5735697640
  H        15.2885705824        4.4209697964       -2.6697683219
  H        17.1359301486        3.3478787751       -1.3865239211
  H        17.1027394449        3.3730558151        1.1295252763
  H        15.2147283046        4.4227667815        2.2999304025
  C        13.0741842764        5.2494425927       -3.1707770518
  C        12.1822188202        4.2378621795       -3.4388160313
  C        12.2883717263        3.5721483221       -4.7010501191
  C        13.1724581550        4.0821409283       -5.7063331012
  C        13.9270463541        5.2125578923       -5.4400762898
  C        13.9324060972        5.7588249261       -4.1832517127
  H        14.5436921768        6.6112811458       -4.0633557086
  H        14.5423227910        5.6618498182       -6.3181225148
  H        13.2478300510        3.5016753793       -6.6287634408
  H        11.8522679939        2.5721863773       -4.7380716119
  H        11.5306092616        3.8032095605       -2.5974478612
  C        19.0878157631        6.2457526609        0.4936054050
  C        18.0819600988        6.9852744230        1.1725296460
  C        16.9685420315        7.5507431601        0.4644664093
  C        15.8646906910        8.1738818736        1.0810648617
  C        14.9123454555        8.8410125334        0.3484848342
  C        18.1234590509        7.3604423540        2.6441406515
  C        18.9073558289        8.4329121843        3.1555548309
  C        18.7214859776        8.8925899581        4.4709439044
  C        17.6747904715        8.3374767764        5.2657962555
  C        16.9793446991        7.2524183970        4.8179887318
  C        17.2609991001        6.7123562385        3.5083356241
  H        15.7352087470        8.1474617775        2.1467532571
  H        14.0515345706        9.2466206369        0.9020465871
  H        19.6568320699        8.8495006881        2.4688425102
  H        19.2629586231        9.7198190503        4.9169624709
  H        17.5865386929        8.7811488427        6.2616575620
  H        16.2408780910        6.8083207483        5.4652878934
  H        16.8189768667        5.7375140914        3.2396128607
  C        19.0989438611        6.2276137356       -1.0252413499
  C        20.0683824749        5.4712775009       -1.7711431598
  C        21.1598354343        4.8990004179       -1.0968931297
  C        21.2138989259        4.9324845624        0.3920690311
  C        20.1455350928        5.4622402795        1.1308262135
  C        16.9565186011        7.5284973151       -0.9622730319
  C        18.0250570716        6.9476388296       -1.7068944421
  C        18.1228539699        7.2376335229       -3.1678188355
  C        19.1881041736        8.0557111652       -3.6246815311
  C        19.1364852124        8.5582476752       -4.9242224918
  C        18.1082182311        8.2152840614       -5.8045697426
  C        17.1902403747        7.2102793048       -5.4329992235
  C        17.1951899502        6.7552532438       -4.0916710209
  H        16.4338375530        6.1109171267       -3.6991065540
  H        16.3480965957        6.8631664408       -6.0941672990
  H        17.9872591262        8.6727334296       -6.7963663528
  H        19.8070924878        9.3840294213       -5.1017215796
  H        20.0037775621        8.4353396421       -2.9047100902
  C        15.9856847301        8.3134258402       -1.6964727881
  C        15.0193883179        9.0344762513       -1.0439317791
  H        14.2150295646        9.6097150429       -1.5108001057
  H        16.1932161824        8.3097258208       -2.7659373026
  C        20.1910855597        5.1883201275        2.5978384547
  C        19.5413920090        4.0394173285        3.0631412824
  C        19.4590249651        3.7768698864        4.4306626417
  C        20.2036786327        4.5404090411        5.3110059085
  C        20.9652553038        5.6537228210        4.8547897514
  C        20.9794221577        6.0145749613        3.5063746644
  H        21.6344422909        6.7593567263        3.1310140233
  H        21.5057479529        6.1349326156        5.6628937462
  H        20.2674350069        4.3220013194        6.4111614543
  H        18.8077603864        2.9472689132        4.8458941662
  H        19.0294923170        3.4558538883        2.2644844859
  C        22.3651426263        4.3921974083        1.0259438972
  C        23.3798617855        3.7394961530        0.3383790136
  C        23.2898944635        3.7087810645       -1.0806281693
  C        22.2608479419        4.2992765882       -1.7560429204
  H        22.1674664403        4.1944890206       -2.8615583817
  H        24.1781330834        3.3542476502       -1.6394430567
  H        24.2419976310        3.3033376923        0.8795787313
  H        22.4702219458        4.2249692685        2.0994976813
  C        19.9609273511        5.1597320770       -3.2748298743
  C        18.9282986884        4.2289693788       -3.6301329908
  C        18.8082455324        3.7184621538       -4.9186101020
  C        19.6580736130        4.1192783283       -5.9236181976
  C        20.7045567405        5.0362525426       -5.5830952923
  C        20.8832072425        5.5625263869       -4.2610457636
  H        21.7427496169        6.2370890248       -3.9871631932
  H        21.3313272489        5.3917052807       -6.3582312002
  H        19.6797240690        3.7500147828       -6.9504627639
  H        17.9561230211        3.0395630292       -5.1611533214
  H        18.1785320348        4.0391611994       -2.8828881368
