140

  C         3.6803196770        0.0687074841       14.4776903255
  C         4.7178310380        0.7618700128       15.1912533802
  C         5.7787633173        1.2949294663       14.4628854255
  C         6.8201976312        2.0469000546       15.1178369101
  C         7.9006657321        2.5390957573       14.4169568464
  C         4.6130800288        1.1448515880       16.6147365705
  C         3.6325696305        2.1594794073       16.8733344689
  C         3.6100720536        2.7999767186       18.1242132203
  C         4.4881432887        2.3936876760       19.1350970515
  C         5.3990985864        1.4445171936       18.9113701188
  C         5.4626740946        0.7691888649       17.6878580661
  H         6.6565416393        2.2378923812       16.1598974814
  H         8.6778011219        3.1412103784       14.9290740771
  H         3.0065303771        2.4010808076       16.0109295850
  H         2.7801011508        3.5254924420       18.2149109429
  H         4.5123912043        2.9179385391       20.0982836079
  H         6.1211880324        1.2117734005       19.7424838860
  H         6.0983536024       -0.0446905742       17.4633899940
  C         3.5820647999        0.0801132261       12.9973827331
  C         2.4441192227       -0.4970918881       12.3418558458
  C         1.4445702339       -1.0399022031       13.1050010873
  C         1.5054466305       -1.1384998384       14.5592669935
  C         2.5632172082       -0.5165628225       15.2417461213
  C         5.8186494703        1.1345865567       13.0747367186
  C         4.7079043765        0.6710444253       12.3501419778
  C         4.7781646183        0.9780820621       10.8853365600
  C         3.9462591255        2.0612205933       10.4191104029
  C         3.9410584252        2.4062559259        9.0388348018
  C         4.7251229553        1.6540872849        8.1053194827
  C         5.5594950683        0.6471994068        8.5401346220
  C         5.5885101721        0.3483528856        9.9378104909
  H         6.2980919498       -0.3935501709       10.3177613864
  H         6.1836474121        0.0352676468        7.9306043261
  H         4.6097998668        1.8901574274        7.0225067207
  H         3.1326536203        3.0623047765        8.7411522690
  H         3.4486682821        2.5921589202       11.1857178733
  C         6.9764257394        1.5380723779       12.4144174181
  C         8.0085946996        2.2538977095       13.0404582620
  H         8.7526165425        2.7624595077       12.4879514766
  H         7.0126747707        1.5478556835       11.3345758840
  C         2.7709250380       -0.8839137072       16.7095155272
  C         3.7400388097       -1.8593670330       17.0051232363
  C         4.0103340398       -2.2550115387       18.3072512788
  C         3.1245786070       -1.7799232636       19.2649049221
  C         2.0417180797       -0.9310147460       18.9870484019
  C         1.9039256943       -0.4494709519       17.7163972575
  H         1.0516402433        0.2076526453       17.4664304336
  H         1.2340296851       -0.7660007663       19.6848653016
  H         3.2463435375       -2.0537152023       20.2509699259
  H         4.9659101896       -2.7837381295       18.5368214637
  H         4.3915014296       -2.1821851443       16.1631928209
  C         0.4619838935       -1.8280445964       15.2931713247
  C        -0.5656269781       -2.4612578501       14.6379264406
  C        -0.6601726854       -2.3285068217       13.2097272245
  C         0.3102444396       -1.6890778702       12.5274706666
  H         0.0793958867       -1.6747108437       11.4658717912
  H        -1.3997550963       -2.8890875713       12.7017259664
  H        -1.2124108304       -3.0195218100       15.2540623771
  H         0.4893569461       -1.8427956667       16.3436297952
  C         2.5462717262       -0.8574326499       10.9092729942
  C         3.5690359608       -1.8027532457       10.5765562120
  C         3.6921257113       -2.1910032981        9.2655901230
  C         2.8102295017       -1.7230386399        8.2540004940
  C         1.8736340345       -0.7904366626        8.5162567658
  C         1.7616284332       -0.3511016040        9.8593045535
  H         0.9962577332        0.3614850450       10.1316381937
  H         1.1578578918       -0.3792120522        7.7762101607
  H         2.8047498643       -2.1834724891        7.2288973294
  H         4.3402492489       -3.0123692073        8.9600834122
  H         4.1829756516       -2.2821454178       11.3589729309
  C        10.8934784592       -0.0920708483       14.4575543964
  C        11.9278315538        0.5654313714       15.2575349994
  C        12.9906158676        1.1880955541       14.6394652905
  C        14.1480614801        1.8064752387       15.3726543983
  C        15.0994195682        2.5179375168       14.6745662090
  C        11.7928894913        0.8235711962       16.6990307905
  C        11.1455423300        2.0014483941       17.1162062072
  C        11.3412196061        2.5871231596       18.4224616556
  C        12.1780715212        2.0118365521       19.3641478968
  C        12.8334241251        0.7909460152       18.9567170973
  C        12.6389198279        0.2194003083       17.6917633965
  H        14.1092130621        1.7077860793       16.4876930994
  H        15.9110914710        2.9572935673       15.2174547227
  H        10.4450097730        2.4150182443       16.3901555479
  H        10.9915745767        3.5994878588       18.6477355353
  H        12.4301174803        2.5360501578       20.2728125225
  H        13.5069824876        0.3772848036       19.6712512582
  H        13.2393586638       -0.6313828766       17.4528938195
  C        10.9042686295       -0.0274898877       13.0039209046
  C         9.8518478288       -0.5525478693       12.2220086096
  C         8.7690539635       -1.2802599939       12.8222365054
  C         8.7669728778       -1.3614007991       14.2642538690
  C         9.9035925955       -0.9168207730       15.0413284106
  C        13.0158508265        1.2489788180       13.1812535840
  C        12.0137903914        0.6324524180       12.4122628064
  C        11.8331965425        1.0665825834       11.0301734121
  C        10.9932256189        2.1699907785       10.8081042729
  C        10.7663962739        2.6286243632        9.4934701232
  C        11.6934896698        2.1329961514        8.5067398040
  C        12.5476983129        1.0749244854        8.7398492111
  C        12.6998370224        0.6096749538       10.0196618716
  H        13.3169078628       -0.2840508314       10.1981344336
  H        13.1636822453        0.7432341997        7.9523830436
  H        11.6046702270        2.3973085020        7.4632989086
  H         9.9713285527        3.3300521393        9.2136094435
  H        10.3407149554        2.4506839214       11.6581180038
  C        14.0267216799        2.0307223193       12.5284548260
  C        15.1027676140        2.4829079218       13.2438023432
  H        15.9150020393        2.9918440183       12.7077580681
  H        13.9540258765        2.0350284984       11.4263942418
  C         9.7912020555       -1.1905702457       16.5553019904
  C        10.5549642546       -2.2535245669       17.0917130830
  C        10.4589226675       -2.4093798467       18.5221830309
  C         9.5477233142       -1.6597693618       19.2801685032
  C         8.8067181208       -0.5890002621       18.7353708515
  C         8.9558351470       -0.3279390609       17.3527546952
  H         8.6088404056        0.5415975460       16.8130262776
  H         8.1680013810        0.0271940499       19.3567674640
  H         9.4508216445       -1.7408738358       20.3272215777
  H        11.0655858541       -3.1728386674       19.0525220912
  H        11.1763218257       -2.8060097258       16.4098556406
  C         7.7116805535       -2.0553194898       14.9400865663
  C         6.6852080111       -2.6418174233       14.1720686302
  C         6.7587624338       -2.5738910115       12.7361002417
  C         7.7621541912       -1.8889069082       12.1333227169
  H         7.7612614727       -1.8605146060       11.0607498124
  H         5.9847539750       -3.1483872621       12.1867883956
  H         5.9009786095       -3.1272101332       14.7792714342
  H         7.7097856905       -2.0780714581       16.0435559460
  C         9.8906763657       -0.8416375970       10.7694105267
  C        10.7485854339       -1.8982862912       10.3667621847
  C        10.8249980275       -2.3912521932        9.1031612379
  C         9.8683812647       -1.9540158614        8.2087674380
  C         9.0455175682       -0.8833185758        8.5136496779
  C         9.2353883268       -0.2571567114        9.7255284947
  H         8.5293999190        0.5636820060        9.8742040203
  H         8.3618821116       -0.3654042901        7.8566462958
  H         9.7197815082       -2.4298029066        7.2315501118
  H        11.5317013222       -3.1692276722        8.8471025824
  H        11.5125313108       -2.2199554199       11.1027184356
