140

  C         5.2323754150        0.1125039819       16.3397127506
  C         6.3531463575        0.6745197518       16.9837668743
  C         7.4939867782        1.0689739002       16.2892275833
  C         8.6068095905        1.6371935935       16.9710204596
  C         9.5540423888        2.3401154515       16.2470767374
  C         6.3579292344        1.1066224907       18.4485908742
  C         5.4899773291        2.1166664038       18.8219644465
  C         5.3477034519        2.4876846061       20.1394632887
  C         6.2472074092        2.0593309459       21.0675972549
  C         7.2595392659        1.1570716111       20.6712892738
  C         7.1800327439        0.5461912389       19.4546767619
  H         8.6557711780        1.6733266816       18.0678517607
  H        10.4666782298        2.7519037014       16.6270941080
  H         4.7173482190        2.5289962165       18.1858363292
  H         4.5829626490        3.2137913357       20.3136496515
  H         6.3670238181        2.4490407899       22.0925380740
  H         7.9951573399        0.8582624455       21.4869405928
  H         7.6413116358       -0.3379655625       19.1713950452
  C         5.2144612776       -0.0381201271       14.8894852652
  C         4.1901403799       -0.7999016761       14.2373775400
  C         3.0662651541       -1.2143518097       14.8832523832
  C         3.0837556027       -1.2163105836       16.3955885677
  C         4.2251989346       -0.6066221025       17.0980996143
  C         7.4094065746        1.1624968899       14.8672086506
  C         6.2578617047        0.6616247074       14.1893739885
  C         6.0945547187        1.2182908760       12.8485104943
  C         5.3026763411        2.3493576801       12.7460768226
  C         4.8934262680        2.8638383119       11.4968389292
  C         5.4316625288        2.3243982531       10.2999901268
  C         6.3701965407        1.2709835734       10.4223866576
  C         6.6471290763        0.7380258347       11.6651432276
  H         7.2845027631       -0.1194018370       11.7177901158
  H         6.7634114903        0.8304033700        9.5175779788
  H         5.1346580373        2.6204243070        9.2907820998
  H         4.2634147773        3.7341821518       11.4654681381
  H         4.9183120571        2.7255659032       13.6589000209
  C         8.4684896992        1.8836966948       14.0996800298
  C         9.5404983743        2.4428173135       14.7918954957
  H        10.4661818008        2.7096038795       14.3482561656
  H         8.3621770182        2.0010925049       13.0509787345
  C         4.3512414293       -0.9854359530       18.5212499541
  C         5.0574448582       -2.1349754571       18.8755634538
  C         4.9241115716       -2.5028875688       20.2288807689
  C         4.1458085822       -1.9069038233       21.2188528334
  C         3.4965068174       -0.7292280601       20.8233960833
  C         3.5696210288       -0.3209821905       19.5288254621
  H         3.1622202602        0.6179032827       19.2408384622
  H         2.9625447405       -0.1345829037       21.5205518591
  H         4.0915000222       -2.2864224091       22.2348232348
  H         5.4322044958       -3.4077032950       20.4651065905
  H         5.6414319120       -2.7549360073       18.2183354261
  C         1.9745242648       -1.7316855739       17.1166212797
  C         0.9477733149       -2.4139995815       16.4958297330
  C         0.9561662792       -2.4638622060       15.0790881467
  C         1.9549464300       -1.9148444468       14.2861430754
  H         1.8925805605       -1.9315843629       13.2120665717
  H         0.1182485827       -3.0321677463       14.6605090215
  H         0.0995519230       -2.7146002130       17.1178034181
  H         1.8992735101       -1.8015167889       18.1744409890
  C         4.3300325674       -1.2005276752       12.7945400798
  C         5.0788214618       -2.2879998824       12.2850641470
  C         5.1610068677       -2.5067943769       10.9032995271
  C         4.3931983019       -1.7479717358       10.0376900734
  C         3.5027657332       -0.7171818780       10.5050094107
  C         3.6053840916       -0.4849110146       11.8654421592
  H         2.8939245734        0.2099542361       12.3401821402
  H         2.9060799614       -0.1407818752        9.8838450537
  H         4.3070819075       -1.9637356328        8.9595922967
  H         5.7846110259       -3.3230504707       10.5589915245
  H         5.3680319390       -3.0901278325       12.9788775897
  C        12.4289208301       -0.0237433405       15.9386252502
  C        13.5598081097        0.6438861504       16.5503029072
  C        14.6142653907        1.2063093390       15.7730256988
  C        15.6755727143        1.8137968844       16.3699219713
  C        16.6670944724        2.4334742220       15.5956244443
  C        13.6001259359        0.9585443370       18.0444005872
  C        12.9491431666        2.0483352868       18.5931763022
  C        12.8916443828        2.2707709740       19.9841457134
  C        13.6105460954        1.5128266649       20.8907024608
  C        14.4221094816        0.4673563228       20.3939215369
  C        14.3460791006        0.1770221065       18.9707042484
  H        15.7702795411        1.8574509684       17.4132294692
  H        17.5895159709        2.8376895262       16.0249160602
  H        12.4040097741        2.7441770808       17.9807405774
  H        12.4484567505        3.1940729822       20.3379040650
  H        13.5568126390        1.8231975903       21.9285783769
  H        15.0809855751       -0.0089037285       21.1853082639
  H        15.0862673787       -0.5306207037       18.5472304466
  C        12.3154707726        0.0769133523       14.4179447620
  C        11.1524099502       -0.5878200136       13.8592599525
  C        10.1825029157       -1.1749944765       14.6369871632
  C        10.3369073945       -1.2154344506       16.0871933268
  C        11.4653997387       -0.6241213960       16.7458759532
  C        14.5240252267        1.2147903545       14.3035281782
  C        13.3315877545        0.7529184736       13.6936616439
  C        13.2238757382        0.8896921270       12.2205369196
  C        12.7068197683        2.0756590807       11.6922010565
  C        12.8893715835        2.3340996460       10.3542632662
  C        13.5869143200        1.4385139074        9.5201115099
  C        14.1118563952        0.3398065083       10.0662071579
  C        13.9281399660        0.0210926852       11.4150085740
  H        14.3727376101       -0.8855036912       11.7877572730
  H        14.5972288283       -0.3812863215        9.4472531784
  H        13.6543152431        1.5778899304        8.4539491234
  H        12.5688303097        3.2876106548        9.9411387909
  H        12.0550406879        2.7022954845       12.2940042704
  C        15.4444403867        1.9679287625       13.5633257499
  C        16.5779746844        2.4630391021       14.1549226903
  H        17.3682265837        3.0189180754       13.5808801548
  H        15.3088899402        2.1722804356       12.4782141191
  C        11.4935395882       -1.0526254380       18.2300486492
  C        12.2756815337       -2.2075418061       18.5397642591
  C        12.2383381376       -2.7049734916       19.9064982239
  C        11.3676273116       -2.0919170704       20.8599125916
  C        10.6231645356       -1.0038778168       20.4228095046
  C        10.7287103699       -0.4132964906       19.1777641220
  H        10.1806868078        0.4714338007       18.8912312992
  H         9.9756386891       -0.4985917495       21.1555515590
  H        11.3805129231       -2.4325961223       21.8899712592
  H        12.8701435027       -3.5366941884       20.1256369941
  H        12.9013361375       -2.6577272714       17.7417073177
  C         9.4035409777       -2.0696683602       16.7397773070
  C         8.2864653250       -2.5110658141       16.1952744564
  C         7.9580501786       -2.3118808841       14.8166353880
  C         8.9407864012       -1.6987702287       14.0696699208
  H         8.7847816394       -1.6691287016       12.9713646922
  H         6.9835845924       -2.7668146450       14.5415563056
  H         7.6092854858       -3.2410203360       16.6803478372
  H         9.5735910081       -2.3297500201       17.7512829517
  C        11.0481378883       -0.9180218671       12.4309243223
  C        11.8219446892       -2.0751231502       12.2118767949
  C        11.8870897803       -2.7122019545       10.9534807418
  C        11.4027642073       -2.0492449164        9.8262839221
  C        10.4803422957       -1.0044113128       10.1046148323
  C        10.4272293727       -0.3855496475       11.3364473472
  H         9.8631227656        0.5233960848       11.4605529683
  H        10.0271858828       -0.4754934115        9.2831008995
  H        11.5871517133       -2.5114960942        8.8315658805
  H        12.4954290332       -3.6035838376       10.8839729526
  H        12.3146741210       -2.4819972154       13.0819416247
