140

  C        11.3641378021        6.8112043686        0.5688686651
  C        10.2821354340        7.3801431457        1.2403150701
  C         9.1797505029        7.8873225947        0.5783193485
  C         8.0796368363        8.5014708427        1.1979525946
  C         6.9886355447        9.0561123803        0.5290308412
  C        10.2293705692        7.7397247510        2.7873121972
  C        11.0210746318        8.7524110097        3.1982614761
  C        11.0058223525        9.2144299371        4.4938130665
  C         9.9811595758        8.7367128799        5.2897380206
  C         9.1483835695        7.6953393008        4.9097205240
  C         9.2558391337        7.1458020839        3.6230510174
  H         8.0764921171        8.6260922895        2.2935044930
  H         5.9976778534        9.4292720344        0.8804492436
  H        11.8307149607        9.1569043874        2.5695699215
  H        11.6355873384       10.0986385632        4.8437279266
  H         9.8032285296        9.2774184337        6.2507083890
  H         8.3805506856        7.4722822545        5.5816032588
  H         8.7154629261        6.2432004634        3.3032254245
  C        11.3854804558        6.7233582799       -0.8989704376
  C        12.4578151775        6.0045674016       -1.5514959935
  C        13.6024646172        5.5633017780       -0.8049142423
  C        13.5835625283        5.6876622080        0.6841094863
  C        12.4317600258        6.1641196826        1.3086235186
  C         9.1783950061        7.7908351769       -0.8997501570
  C        10.3307150963        7.3069093878       -1.5978499700
  C        10.3963022612        7.6332562425       -3.0325666767
  C        11.3950193342        8.5006922224       -3.4689861583
  C        11.4447347680        9.0296875119       -4.7326326556
  C        10.4932170170        8.5600708167       -5.7302177643
  C         9.4839156809        7.6113143302       -5.3609705063
  C         9.4574294739        7.1042893241       -4.0415264752
  H         8.7236031847        6.3629085211       -3.7312347850
  H         8.6793980173        7.3004448889       -6.0309202631
  H        10.4793535396        8.9845087201       -6.7122859815
  H        12.1352367623        9.8245776974       -5.1092514310
  H        12.0938794324        8.7889881510       -2.7005049882
  C         8.0007436196        8.2856635266       -1.5596008735
  C         6.9901448004        8.9845508964       -0.9051141647
  H         6.1402298727        9.4881873767       -1.3670629834
  H         8.0752469797        8.4498805922       -2.6589710571
  C        12.2609735442        5.7438708442        2.7061623848
  C        11.5454542350        4.5669324580        3.0505668634
  C        11.5460785473        4.0372539564        4.3643236766
  C        11.9836132287        4.8483877878        5.4099886985
  C        12.8072545215        5.9949480323        5.0624107228
  C        12.8267765094        6.4769326071        3.7580167509
  H        13.3632382254        7.4149086475        3.6293043837
  H        13.3013143137        6.5629431283        5.8391902390
  H        11.9303158944        4.5716935926        6.4373099208
  H        10.8992322646        3.2032712351        4.5344524744
  H        11.1086657034        3.9821078482        2.2853838740
  C        14.7604518445        5.1361901277        1.2988422086
  C        15.7960689594        4.5534826786        0.6090274580
  C        15.6828764947        4.3459113675       -0.8330260847
  C        14.6613181801        4.8802739070       -1.5155168929
  H        14.5488437125        4.7644746250       -2.6127737567
  H        16.4632867759        3.7901176002       -1.3597748072
  H        16.6153575853        4.1149505440        1.1239502907
  H        14.7572398019        5.1914427823        2.4319149150
  C        12.2398893512        5.5695010719       -3.0000465870
  C        11.1426221284        4.8182603661       -3.3456026891
  C        10.9511790236        4.3235037937       -4.6474478057
  C        11.7849595681        4.7576395777       -5.6364723885
  C        12.9207917014        5.5261795391       -5.3652041204
  C        13.1165121177        5.9876123786       -4.0167628764
  H        13.9146158020        6.6934809639       -3.8557265203
  H        13.5458637488        5.9065658727       -6.1814704790
  H        11.5426491114        4.5416824029       -6.7015956947
  H        10.0874850483        3.6543878343       -4.7810478784
  H        10.4881713123        4.5404689296       -2.5598712405
  C        18.3327456108        7.0138247172        0.8672306821
  C        17.3178755399        7.8710904419        1.3779795839
  C        16.2876294520        8.4409718251        0.6118929782
  C        15.2026601135        9.1459330333        1.2570676162
  C        14.3421193632        9.8770913938        0.4152236202
  C        17.2477070313        8.1289149613        2.8697996947
  C        18.1050154233        9.1355474985        3.4068559484
  C        18.1326646500        9.4111386797        4.7697465040
  C        17.3395416687        8.6746208451        5.6547820775
  C        16.4590619651        7.6900263872        5.1431944028
  C        16.4097271461        7.4194225561        3.7334212346
  H        15.0452998865        9.2103144681        2.3002140107
  H        13.5149331429       10.4515761470        0.9195685920
  H        18.8998399023        9.4807964036        2.7325843489
  H        18.7670600850       10.2405524189        5.0777356992
  H        17.4131063924        8.8690537606        6.7231437076
  H        15.7653949267        7.2971653269        5.8771483229
  H        15.6495519360        6.7699922237        3.3319659883
  C        18.4458288684        6.9488385607       -0.5932909979
  C        19.5435910934        6.2470884370       -1.2797710257
  C        20.5211832850        5.5870001836       -0.5101696220
  C        20.3045746312        5.4923239945        0.9529605001
  C        19.2006041085        6.0899084919        1.5371727415
  C        16.3146222484        8.3153524630       -0.8372425293
  C        17.4003941729        7.5859986514       -1.4240796409
  C        17.4389100417        7.8504108654       -2.9671947545
  C        18.0132354973        9.0291925978       -3.4213868249
  C        17.9009243554        9.4155729669       -4.7667843775
  C        17.1489630874        8.7195313117       -5.6369837691
  C        16.5041462064        7.5796868583       -5.1924582712
  C        16.6549128656        7.1624281097       -3.8494318404
  H        16.2311661547        6.1795384088       -3.5956172979
  H        15.9851758640        6.9190596260       -5.8674862905
  H        17.0829718999        8.9762218825       -6.7033521101
  H        18.3668514771       10.3945723614       -5.0782111603
  H        18.5389954134        9.7390299494       -2.7998374048
  C        15.3395375558        9.0319797336       -1.6123509159
  C        14.3531971345        9.7775349536       -0.9698710272
  H        13.5909936772       10.2498492323       -1.5886331000
  H        15.3003230013        8.9690046181       -2.7038008560
  C        19.0732037432        5.7264047405        2.9804935818
  C        18.5272545854        4.4592320828        3.3341831076
  C        18.6279749502        3.9798098159        4.6340398991
  C        19.2769139812        4.6966262840        5.5884413197
  C        19.9369508525        5.8839031504        5.2766646292
  C        19.8427525886        6.4200958411        3.9668986207
  H        20.3667088134        7.3120362951        3.6995554665
  H        20.4761827849        6.5197968037        5.9894256024
  H        19.4039624534        4.3374309130        6.6278409953
  H        18.1781663537        3.0509158570        5.0222076537
  H        18.0703505495        3.8795306705        2.6419059920
  C        21.3363486234        4.8578898283        1.7571031535
  C        22.3665561170        4.1173399568        1.1452868724
  C        22.4988037252        4.1878021094       -0.2397547911
  C        21.6828429411        4.9550775986       -1.0261131336
  H        21.8722830980        5.0502674840       -2.0946489431
  H        23.3460136602        3.7161617415       -0.7069077900
  H        22.9135423506        3.3926828568        1.7381501484
  H        21.3290906492        4.9294710040        2.8328055189
  C        19.5055143545        5.8824336791       -2.7776803491
  C        18.6898557074        4.7748854445       -3.2170636587
  C        18.6670790003        4.4278798756       -4.5696213168
  C        19.4063829951        5.1611091297       -5.5221533833
  C        20.2511029880        6.1565403818       -5.0464536984
  C        20.2907969494        6.5891899857       -3.7113783899
  H        20.9101602161        7.4763667043       -3.3865794286
  H        20.8894698305        6.5961858833       -5.8087206462
  H        19.4461851938        4.6839907709       -6.4741583326
  H        17.9931749095        3.6537325183       -4.9025377140
  H        17.9181718298        4.3569380961       -2.5901059376
