140

  C         2.9729245275        0.1168783708       14.6562211396
  C         3.8974256510        0.9537876862       15.3433208936
  C         4.8983820022        1.5793856218       14.6358109257
  C         5.8855380262        2.2917079943       15.3524662969
  C         6.9259698329        2.8634977635       14.7135447144
  C         3.7908058996        1.3317129586       16.8268093528
  C         3.0792582176        2.4428877421       17.3752916633
  C         3.2406001614        2.8558042637       18.7000447094
  C         4.0209947544        2.0678759095       19.6451917472
  C         4.7399876402        0.9873407336       19.1366094631
  C         4.6093868272        0.6256621871       17.7286406533
  H         5.8221500861        2.4341906090       16.4175783606
  H         7.6798754274        3.3270555824       15.3470387853
  H         2.3808793211        3.0171380360       16.7323212625
  H         2.7144896809        3.7770795586       19.0198734937
  H         4.3033852217        2.3317432047       20.6236494225
  H         5.4650161606        0.5090728690       19.7973653596
  H         5.2683514426       -0.0945100102       17.2043403726
  C         2.9311336534        0.1432400983       13.1702596557
  C         1.8971346328       -0.5425952213       12.5449213801
  C         0.8087609780       -1.1310289477       13.1948493617
  C         0.8592542483       -1.1799519332       14.6569225714
  C         2.0075387029       -0.6902406013       15.3953961863
  C         4.9687875929        1.4281318475       13.1622987813
  C         3.9708752558        0.8303432460       12.4160849149
  C         3.9205364925        1.2717685197       10.9523990765
  C         3.5402851509        2.6079574574       10.5723206648
  C         3.6638644134        3.0288784161        9.2174070561
  C         4.1342213305        2.0878978198        8.2361040263
  C         4.6970293665        0.8884775800        8.6364951958
  C         4.5802456977        0.5129647526        9.9347270574
  H         4.9057341649       -0.4525648583       10.3568269248
  H         5.0648288996        0.1389476239        7.9552984667
  H         4.1857758967        2.3446547054        7.1722634118
  H         3.3288577420        4.0544606779        8.8991388604
  H         3.1110358364        3.2514812956       11.2949659507
  C         6.1465820469        2.0965762828       12.5075550131
  C         7.0315015604        2.7465920527       13.2925526444
  H         7.8692426772        3.2990037309       12.9337194322
  H         6.1311441258        2.1866606776       11.3656339551
  C         2.0846575103       -0.9705858002       16.8576347145
  C         2.9219615534       -1.9959609706       17.3025581930
  C         3.0040943092       -2.2895286721       18.7123877595
  C         2.1693670000       -1.7119692802       19.5762090991
  C         1.2498354628       -0.7082541748       19.1401929508
  C         1.2538147665       -0.2438042471       17.7927845047
  H         0.5801940890        0.5678542835       17.5133187664
  H         0.5989800281       -0.1905310622       19.8150098521
  H         2.2003900461       -1.9418951061       20.6799014169
  H         3.7746586608       -2.9932307963       19.0825909449
  H         3.5906153945       -2.5323385989       16.5978617931
  C        -0.3061454686       -1.7841251965       15.2187530940
  C        -1.3550607496       -2.2987013498       14.4898053018
  C        -1.3637793844       -2.2487513407       13.0303243040
  C        -0.2616712193       -1.7025195605       12.4347606364
  H        -0.2137730538       -1.6690642428       11.3284545033
  H        -2.1198047984       -2.6797320764       12.4221395381
  H        -2.1804576747       -2.7914530016       14.9497922249
  H        -0.3125207384       -1.8860710822       16.3003871672
  C         1.9775899210       -0.7787876491       11.0762802498
  C         2.5438209902       -1.9869855718       10.6016712713
  C         2.3776284602       -2.4811314535        9.2899038733
  C         1.5657339362       -1.7468978271        8.3977491415
  C         0.9659252412       -0.5610472885        8.8426912407
  C         1.1590261851       -0.0665011829       10.1533396903
  H         0.6469871767        0.8363630857       10.5126760898
  H         0.4618809834        0.1373528166        8.2097589256
  H         1.2275227211       -1.9864437249        7.3842021615
  H         2.9528233511       -3.4360271295        9.0210982310
  H         3.1799998749       -2.5129323210       11.3035793726
  C        10.0815450441        0.2208732931       14.6125610074
  C        11.0626736906        0.9166606811       15.3098578171
  C        12.2118772152        1.4304991275       14.6977475667
  C        13.2181391310        2.1471520424       15.4477348747
  C        14.1506364130        2.8044364487       14.6534096323
  C        10.9446635155        1.1974715042       16.7675434314
  C        10.2722301580        2.3536395687       17.1523022366
  C        10.3107955714        2.7550572059       18.4946930637
  C        11.0279189614        2.0238328295       19.4210473270
  C        11.7514349471        0.8564290052       19.0090500223
  C        11.6846663591        0.4016703728       17.7024768439
  H        13.2335463711        2.2802773789       16.5274072924
  H        14.7558734211        3.5070016461       15.2011045290
  H         9.7438590777        2.9693595900       16.4364917350
  H         9.8171026436        3.6729051780       18.8318139396
  H        11.0164347157        2.3349932530       20.4332829139
  H        12.3888533594        0.3134342401       19.6407663987
  H        12.2957006513       -0.4288103671       17.3288513637
  C        10.0936454692        0.1742341057       13.1140524035
  C         9.1004267764       -0.6291004745       12.4705617581
  C         7.9398236242       -1.1489036791       13.2069307884
  C         7.8095960808       -0.8759218747       14.6417364377
  C         8.9211410568       -0.3768835148       15.3680142360
  C        12.3078956058        1.3381391273       13.2483722333
  C        11.2715422644        0.7246539174       12.4544724370
  C        11.0597849271        1.1901502886       10.9644941358
  C        10.1309567507        2.1836158570       10.8658623559
  C         9.9777869990        2.7452998306        9.6202564133
  C        10.5581492179        2.2126134513        8.4453464035
  C        11.3850849708        1.0977547854        8.5647034027
  C        11.6939051549        0.5625572884        9.8125296529
  H        12.3726649057       -0.2774778572        9.9724674751
  H        11.8039843034        0.6334626028        7.6927549373
  H        10.3983028297        2.6009056785        7.4880988621
  H         9.3278087910        3.6229204677        9.5397495878
  H         9.7069148393        2.6572281421       11.7171771321
  C        13.3480114653        2.0657849627       12.5701440828
  C        14.1964108197        2.7775428681       13.2736479174
  H        14.9229752451        3.4271193092       12.7122400908
  H        13.4288510501        1.9437214242       11.4747616510
  C         8.9741312106       -0.7087016117       16.8599746738
  C         9.7310293897       -1.8398566050       17.1984595099
  C         9.6671672273       -2.4060698872       18.4902348002
  C         8.8683470778       -1.8615397332       19.5116615122
  C         8.1140313988       -0.7390892964       19.1729986789
  C         8.1755796763       -0.1798797169       17.8986043066
  H         7.5915432055        0.7467543215       17.7365890123
  H         7.4809277679       -0.3401037289       19.9374773288
  H         8.6947576629       -2.4707967996       20.4561494259
  H        10.2290098554       -3.3436849041       18.6866356206
  H        10.3224079730       -2.3183926068       16.4355076787
  C         6.6011616282       -1.2818101347       15.2382047937
  C         5.6627168201       -2.0459770186       14.5244577736
  C         5.9389635169       -2.4562975599       13.2506895451
  C         7.0031495043       -1.9472999590       12.5286591553
  H         7.1276329969       -2.3464037585       11.5244294080
  H         5.2265841814       -3.0984296572       12.6635670800
  H         4.7802235404       -2.3341903905       15.0025431617
  H         6.4772642642       -1.0816615135       16.3274531042
  C         9.1569781337       -1.0415481445       11.0549776732
  C         9.8877060281       -2.1610978895       10.6224008461
  C         9.9499498072       -2.3910757528        9.2481166594
  C         9.2664386220       -1.6104672681        8.3135583546
  C         8.4301494681       -0.6257524411        8.7656481737
  C         8.3830693747       -0.3356190461       10.1570538032
  H         7.8218949961        0.5452051774       10.4921975630
  H         7.7951333221       -0.0563376253        8.1217730331
  H         9.3728165827       -1.9022756023        7.2918868060
  H        10.5698270458       -3.1739030473        8.8580625791
  H        10.3792147314       -2.7795238345       11.3341244546
