140

  C         9.9692488484        7.5314620061        1.1257293657
  C         8.9856471590        8.4271721028        1.7778411260
  C         7.8877115964        8.8602786598        1.1338353896
  C         6.8006236605        9.4512397133        1.8133838510
  C         5.7500772581        9.9540213458        1.1771053540
  C         9.1122332746        8.8399741165        3.2249029498
  C        10.0573576815        9.8138504043        3.5152519903
  C        10.1254571107       10.2662951216        4.8538910695
  C         9.3928467520        9.7972545143        5.8982693882
  C         8.4275798789        8.8551612650        5.5340421867
  C         8.3044710405        8.3552759531        4.2269209419
  H         6.7818706042        9.5899312649        2.8603542888
  H         4.8963291074       10.2669597760        1.7126505838
  H        10.6030273053       10.3517175183        2.7288529349
  H        11.0005414202       10.9000019558        4.9323617698
  H         9.5047868308       10.1094022473        6.8961647858
  H         7.7571462064        8.4529935202        6.3560320148
  H         7.6264246105        7.5560647271        3.9575544837
  C         9.7740847426        7.3294186786       -0.3337662950
  C        10.7945418027        6.5276285011       -0.9521032818
  C        11.9790686172        6.1343918415       -0.2732098455
  C        12.0114370258        6.1448645358        1.1886523378
  C        10.9199885933        6.8344864246        1.8435712362
  C         7.7012386106        8.6650745550       -0.2545782993
  C         8.6984504475        7.9891896781       -0.9940303791
  C         8.7708432666        8.1985956955       -2.4506493778
  C         9.6408956231        9.2520633215       -2.9271254124
  C         9.7433106500        9.6660407997       -4.2131565954
  C         8.9005517545        9.0369311272       -5.1364622865
  C         8.0722394488        7.9758551924       -4.7570777566
  C         7.9306638875        7.5825933083       -3.4260967692
  H         7.1419281312        6.8729657613       -3.1498555138
  H         7.2302962214        7.7464037345       -5.4245456176
  H         8.8903094684        9.3948681596       -6.1562633251
  H        10.3013920164       10.5751237748       -4.4689082424
  H        10.2568246550        9.7063812221       -2.1760249300
  C         6.5355699846        9.1560363702       -0.9936271916
  C         5.5566837249        9.7409681806       -0.2686959687
  H         4.6044560494       10.1992475714       -0.5918094585
  H         6.5585813507        8.8430922988       -2.0026654680
  C        10.9969517744        6.7123070161        3.3165132177
  C        10.3109065752        5.5624287056        3.7251316513
  C        10.4987998585        5.0158289403        5.0038712415
  C        11.3322995020        5.6968969456        5.8752512861
  C        12.0684477992        6.8719462305        5.4442076567
  C        11.9260014234        7.3436046236        4.1596900809
  H        12.3970662589        8.2427767381        3.7688642845
  H        12.8160989826        7.3323308427        6.1388563584
  H        11.5004390470        5.4163064533        6.9072812567
  H        10.0993259658        4.0027242276        5.2788119754
  H         9.6505270095        5.2187709644        2.9524732474
  C        13.1221244921        5.5757763396        1.8477765491
  C        14.2104993441        5.0756105178        1.1533315239
  C        14.0724978735        4.9239951520       -0.2400925904
  C        12.9611259972        5.4117530103       -0.8825545492
  H        12.8133383750        5.1980515434       -1.9741543866
  H        14.8247694319        4.4118598577       -0.8257624108
  H        15.0756529364        4.5775057387        1.6691346916
  H        13.1963876578        5.6443754976        2.9553577387
  C        10.7972538704        6.1673613969       -2.4172519009
  C        10.0853509092        5.0535184882       -2.8879876756
  C        10.1830466929        4.6518787313       -4.1946912660
  C        11.0960803332        5.2433786844       -5.1576506973
  C        11.7879554695        6.3555193296       -4.7211997153
  C        11.6001241154        6.8166368543       -3.3897684850
  H        12.0791889476        7.6710481030       -3.0546384964
  H        12.3339967254        7.0104718080       -5.4251946596
  H        11.0022541996        4.8950493970       -6.1866218148
  H         9.5432523368        3.8471484833       -4.5127934175
  H         9.4458590688        4.5748894548       -2.1301981894
  C        17.1410288440        7.3601205185        1.2550463043
  C        16.1274034978        8.1319555266        1.9706374945
  C        15.0498700205        8.7147310083        1.2263664859
  C        13.9579754628        9.4222410425        1.8917583982
  C        13.0911556217       10.2243927080        1.2398958814
  C        16.2616466347        8.3602818083        3.4339612416
  C        17.1976648700        9.3731952522        3.7654451907
  C        17.1101869402        9.8643545067        5.0905143590
  C        16.1498076625        9.4767535018        6.0461286029
  C        15.3528492016        8.3568975691        5.7370866166
  C        15.3952072356        7.8432147086        4.3960197336
  H        13.9238686417        9.4006689466        2.9918315338
  H        12.3538084094       10.7827502386        1.8233296692
  H        17.7687869053        9.9206359073        3.0370170511
  H        17.6521782696       10.7349764542        5.4116388960
  H        15.9212011207       10.0195638062        6.9342127559
  H        14.6842203455        7.9784857519        6.4679160626
  H        14.6829189413        7.0548913219        4.1334138776
  C        17.2287879930        7.4326790008       -0.2299080871
  C        18.2707738460        6.6717169850       -0.8760740911
  C        19.3318426560        6.1121888068       -0.1409536154
  C        19.2890701727        6.0466218772        1.3524840883
  C        18.1805121709        6.5983939600        1.9586839212
  C        15.0667422374        8.8200647330       -0.2118995849
  C        16.1788878606        8.1824988285       -0.8998239430
  C        16.2287186036        8.4872471892       -2.3681658901
  C        16.8350601394        9.6616372626       -2.8660989157
  C        16.7256776705        9.9564137138       -4.2317878632
  C        16.0387198133        9.1221119001       -5.0995175958
  C        15.3236099935        7.9885413949       -4.5679935884
  C        15.4635954500        7.6156284380       -3.2007658988
  H        14.9188199477        6.7748660311       -2.7543426836
  H        14.9609879797        7.3073593102       -5.2906781600
  H        15.9937361843        9.3662985372       -6.1540052483
  H        17.2683297813       10.8087463835       -4.6059673569
  H        17.3799755146       10.3324084538       -2.1577922050
  C        14.0030156433        9.4711426957       -0.8344864877
  C        13.0422224945       10.2279789456       -0.1504198789
  H        12.1792526055       10.6652724196       -0.6100251511
  H        13.8573001752        9.5257533400       -1.9212717649
  C        18.1106629510        6.2862939132        3.4514255400
  C        17.2581615950        5.2814226918        3.9282413595
  C        17.4231695049        4.7721499266        5.2155850371
  C        18.3504293687        5.3487491107        6.1251102722
  C        19.2820893886        6.2156665642        5.6372546985
  C        19.1480602994        6.7662709924        4.3287221723
  H        19.7679656448        7.6005521425        4.0236437691
  H        20.0721337907        6.5480390933        6.2940241391
  H        18.4527369800        4.9307870816        7.1625231295
  H        16.7702047976        3.9848798176        5.5999766180
  H        16.4412988821        4.9181008869        3.2806157191
  C        20.3638601435        5.3798599093        2.0320066739
  C        21.4079626305        4.8266355828        1.3793680823
  C        21.4445520936        4.7826920578       -0.0342300230
  C        20.4264115176        5.3608130926       -0.7376674864
  H        20.5189264612        5.2492284820       -1.8335079982
  H        22.1664152786        4.2101642705       -0.6059225630
  H        22.0674400792        4.2034134286        2.0231290764
  H        20.3410732626        5.3036895612        3.1109516256
  C        18.2725489194        6.4483694397       -2.3271082903
  C        17.5428673999        5.2892818618       -2.8072869969
  C        17.7055620325        4.7876767923       -4.1111309420
  C        18.5593448538        5.5237803533       -4.9615253847
  C        19.2007989764        6.6957915110       -4.5734678027
  C        18.9850717270        7.1546989525       -3.3031184593
  H        19.4550154087        8.1413399485       -3.0259081968
  H        19.8665035281        7.2429699958       -5.2862149315
  H        18.5996979458        5.1336618789       -6.0015040985
  H        17.2114523069        3.8873576941       -4.4973790121
  H        16.9712121751        4.7789666816       -1.9840028821
