140

  C        10.3641518713        7.0725933101        1.4008608476
  C         9.5346842684        7.9061598303        2.1955688958
  C         8.3308829843        8.3737152178        1.5380049443
  C         7.3148201590        8.9082522040        2.3803535856
  C         6.2776381844        9.6520755889        1.8239463334
  C         9.8498597003        8.3925569873        3.6345573796
  C        10.5000426794        9.6453189965        3.8418872817
  C        10.5313816273       10.2583718861        5.0986595167
  C         9.8586684273        9.6072876749        6.2150912965
  C         9.2619616582        8.3086195286        6.0178177594
  C         9.2314585736        7.7973029786        4.7345591691
  H         7.3960264345        8.8176314996        3.4607267441
  H         5.5890838622       10.0754209753        2.5647748997
  H        10.9216926792       10.1337688056        2.9204586157
  H        10.9862723697       11.2747975927        5.1511395513
  H         9.9540941190       10.1291323858        7.1947120595
  H         8.7834512610        7.6852127616        6.7906785711
  H         8.6994550885        6.8586370172        4.5795559998
  C        10.2695553547        7.0857189334       -0.1164920430
  C        11.4448204204        6.4749798126       -0.7751611744
  C        12.5348222730        6.0065872290       -0.0529502540
  C        12.5189589600        5.9673254414        1.3944593704
  C        11.3766337036        6.2934934607        2.0822491529
  C         8.1651198980        8.4641911392        0.1648828471
  C         9.2499395716        7.9196122176       -0.6665091009
  C         9.3136654162        8.2757285805       -2.1496784331
  C        10.1024771710        9.3286882137       -2.6300464074
  C        10.2002158607        9.7110603803       -3.9682926807
  C         9.3317536502        9.0571671763       -4.8913291466
  C         8.4763344369        8.0530502310       -4.4508796098
  C         8.4540578010        7.6845529031       -3.0627574726
  H         7.7485133132        6.9602306600       -2.7051547355
  H         7.8333986097        7.5263354092       -5.2172507402
  H         9.3659265971        9.2368701146       -5.9535072912
  H        10.8187048099       10.5627237073       -4.3021032962
  H        10.7587689648        9.7360370087       -1.8294023239
  C         7.0699875483        9.1515336126       -0.4218957115
  C         6.1189782043        9.7860871405        0.3751632706
  H         5.1360221732       10.0941763554       -0.0127963917
  H         7.1124024667        9.0991954187       -1.5086881284
  C        11.3664274078        5.9999665150        3.5073527367
  C        10.6119023102        4.9434838416        4.0676178213
  C        10.6958808512        4.5699491288        5.4085606359
  C        11.6067754815        5.1965738650        6.2325266362
  C        12.4336476096        6.1803713445        5.7493144992
  C        12.2635238292        6.5910411371        4.4172827965
  H        12.7991185420        7.5011522218        4.0778673161
  H        13.1790702023        6.7055268111        6.3129097008
  H        11.8363914678        4.8224784230        7.2491165405
  H        10.0515099973        3.7882983432        5.8137804826
  H         9.9165429509        4.4289320680        3.4762225259
  C        13.6404812350        5.2730749033        2.0026816494
  C        14.6773987964        4.7171813056        1.2404704186
  C        14.6204635972        4.7737926678       -0.2170848023
  C        13.6228871121        5.4219016210       -0.8046936149
  H        13.6376130361        5.4843031337       -1.8924090022
  H        15.3973275281        4.2357965375       -0.7680168115
  H        15.5189857773        4.3264272760        1.8640616885
  H        13.8611909861        5.1536768027        3.0429424344
  C        11.3365080070        6.1853650194       -2.1771616642
  C        10.5932881444        5.1320813316       -2.6287732076
  C        10.4641690919        4.8588992585       -3.9939253168
  C        11.2449185537        5.5461839974       -4.8842491096
  C        12.1008549014        6.5230882043       -4.4771763028
  C        12.1653672475        6.8813798951       -3.1154450631
  H        12.8020128847        7.5525298031       -2.6677891648
  H        12.7859161434        7.0386955093       -5.1510566228
  H        10.9772991832        5.3774785543       -5.9111048714
  H         9.9233140418        4.0469437752       -4.4311037627
  H        10.0523318333        4.5481193600       -1.8529112609
  C        17.6206317444        7.3518983914        0.9610051086
  C        16.5773550292        8.0227649860        1.7400050787
  C        15.4472334763        8.4753105999        0.9802233796
  C        14.3018768267        8.8755959946        1.7385457404
  C        13.1746384768        9.3204330791        1.1048121139
  C        16.6826479045        8.3584143388        3.1994673496
  C        17.3976977113        9.5106677634        3.5135130454
  C        17.4110399779        9.9404065198        4.8554296286
  C        16.7790858175        9.2871150813        5.8757589337
  C        16.0833853748        8.1316826737        5.5185155307
  C        15.9843306571        7.6287402336        4.2262262441
  H        14.3182756559        8.7911424214        2.7949810210
  H        12.2483307063        9.4016480616        1.6175826724
  H        18.0161918859       10.0453713202        2.7810803196
  H        17.9582286569       10.8476954336        5.0098097401
  H        16.8289462901        9.4052843284        6.9599995573
  H        15.4858510592        7.6319452619        6.3007891766
  H        15.4802002164        6.6976698928        3.9685755096
  C        17.5540993368        7.2860901024       -0.4996368507
  C        18.6542252578        6.6527095572       -1.1733975853
  C        19.6415597801        5.9984711632       -0.4589818653
  C        19.6171101673        5.9762474563        0.9812693233
  C        18.6512881960        6.7088358281        1.6469184018
  C        15.4480482342        8.5420375682       -0.4753771786
  C        16.5473633824        8.0245313584       -1.2261009954
  C        16.5224238528        8.3815569310       -2.6409128338
  C        17.3740984653        9.3491934205       -3.1563309778
  C        17.4020150085        9.6307387280       -4.5615460520
  C        16.3710261189        9.0678459366       -5.3702295226
  C        15.5207888571        8.1173507731       -4.8066179180
  C        15.5314716307        7.7667398816       -3.4542967025
  H        14.9051475108        7.0147631277       -2.9714118572
  H        14.7987012174        7.6236358146       -5.4163650187
  H        16.3260975361        9.3566999390       -6.3840561058
  H        18.1883303135       10.1911602238       -5.0110481112
  H        18.1553739171        9.7078889544       -2.4344004185
  C        14.2712268742        9.2510245008       -1.0491758627
  C        13.1968265508        9.6583353574       -0.2618591915
  H        12.3917575413       10.2177544580       -0.6943900721
  H        14.1423479905        9.4870131726       -2.0752232409
  C        18.5308832457        6.4666074197        3.1011185759
  C        17.8267652675        5.2631730027        3.3986989692
  C        17.8414751227        4.7061734142        4.6655706365
  C        18.6251854881        5.3424995952        5.7002459088
  C        19.2327176583        6.5541391697        5.4137280178
  C        19.2931756846        7.1098812433        4.1192877654
  H        20.0216100957        7.8676646297        3.8365086375
  H        19.8469738713        7.0591554269        6.1743253087
  H        18.6260325842        4.9731980543        6.6943749056
  H        17.3033463871        3.7929904586        4.8480132753
  H        17.2579758124        4.7222556219        2.6003542153
  C        20.5472846123        5.1595024020        1.6737133879
  C        21.5907834428        4.5733999612        1.0671579603
  C        21.7062301966        4.6493079958       -0.3552603903
  C        20.7698168241        5.3683050068       -1.0645978068
  H        20.8402718047        5.3254291069       -2.1529242654
  H        22.5428071910        4.1423213956       -0.8236783933
  H        22.3458998253        3.9852285695        1.6167265568
  H        20.3734286000        4.9572096134        2.7263500560
  C        18.5099632397        6.1726119810       -2.6239538173
  C        17.6687451255        5.1016850342       -2.8977748275
  C        17.7191651044        4.4232854856       -4.1103701555
  C        18.7113316698        4.7942823555       -5.0087709738
  C        19.4517930890        5.9385604978       -4.8503974144
  C        19.2936876365        6.6766099588       -3.6922739479
  H        19.8650877672        7.6431137493       -3.5502674479
  H        20.1947720388        6.1618125093       -5.6374077827
  H        18.8055947425        4.2937488481       -5.9754219520
  H        17.0981390223        3.5581431613       -4.2826724473
  H        16.9823537864        4.7368079057       -2.1263900392
