140

  C         3.4580431691        0.3750333359       14.3751125606
  C         4.4887365180        1.0404315536       15.1193363935
  C         5.6536509348        1.5467690385       14.4691013650
  C         6.7364706979        2.1950336186       15.2044621527
  C         7.7631940354        2.7357455496       14.4724204093
  C         4.2959138017        1.3929164663       16.5724023796
  C         3.4435689546        2.4373296227       16.9982060879
  C         3.3765966808        2.8156696144       18.3313220286
  C         4.1561028867        2.1181748240       19.2831504978
  C         5.0611739364        1.0661429843       18.8398754287
  C         5.1643601359        0.7840460489       17.4865882157
  H         6.6338000094        2.3818851403       16.2873688535
  H         8.4097587061        3.4232011716       15.0100765814
  H         2.7987550930        3.0091243125       16.3195526438
  H         2.6184221770        3.6037238784       18.5651223811
  H         4.0585791042        2.2532440072       20.3551423905
  H         5.8304928454        0.7348127631       19.5150530482
  H         5.7624046616       -0.0191476866       17.1513906816
  C         3.4845978012        0.3519659885       12.9310488893
  C         2.4900498819       -0.4591423937       12.2126401401
  C         1.4257886756       -1.0555445593       12.8835763225
  C         1.4035715365       -1.0904394385       14.3904065297
  C         2.4536751868       -0.4279310898       15.0839222058
  C         5.6933196158        1.4659255646       12.9669806326
  C         4.5264806513        0.9559485044       12.2428962540
  C         4.4664564549        1.3078723922       10.7322015807
  C         3.5679245729        2.2291734966       10.2826372737
  C         3.7579790759        2.7869928689        8.9865479439
  C         4.7172455583        2.3300948007        8.0345079656
  C         5.4730244793        1.2491568786        8.4789206911
  C         5.4100721602        0.7682572298        9.8155737579
  H         5.9819037197       -0.1103038234       10.0044891053
  H         6.2967047641        0.9624354243        7.7847008387
  H         4.8466489926        2.8666990197        7.1084657056
  H         3.1497248792        3.6503592192        8.6870500469
  H         2.7243140911        2.5775635390       10.8749727062
  C         6.8686665809        2.0137729803       12.3591931647
  C         7.9573674332        2.5892496359       13.0415397648
  H         8.7205859067        3.1172868561       12.4976744024
  H         6.8303149846        2.2021224853       11.2693790531
  C         2.5987952653       -0.7791040384       16.5806150138
  C         3.4402051700       -1.7923146138       17.0747207696
  C         3.2665889870       -2.3416432962       18.3666950482
  C         2.2446056228       -1.9272171062       19.2461938454
  C         1.4361578979       -0.8796765610       18.7765073910
  C         1.5577899548       -0.3825175415       17.4949900688
  H         0.8843411863        0.4060656140       17.2694795782
  H         0.6779618288       -0.4115737406       19.4538850455
  H         2.0354661112       -2.3945384032       20.1682224743
  H         3.8579242394       -3.1878107830       18.6710738714
  H         4.2802401404       -2.1464034693       16.4300219981
  C         0.3999524662       -1.8639100910       15.0705765835
  C        -0.6766263958       -2.3737615320       14.3464086844
  C        -0.7600050376       -2.1939207941       12.8708393375
  C         0.3101422612       -1.7158314302       12.2107025206
  H         0.2935343977       -1.5585622706       11.1449948966
  H        -1.6504888356       -2.5816782839       12.2518675420
  H        -1.4669334978       -2.9464176766       14.8209000846
  H         0.4395997453       -2.0359601887       16.1001485260
  C         2.7031544431       -0.8518890006       10.7729504934
  C         3.6638664095       -1.8306167751       10.5916473704
  C         3.9811949963       -2.3592606179        9.3787949004
  C         3.2141389454       -2.0621226593        8.2406046937
  C         2.1308144426       -1.1866755921        8.4722656646
  C         1.8989726742       -0.5559027054        9.6947498092
  H         1.0809180231        0.1728959388        9.6562845970
  H         1.5309315436       -0.8369769986        7.6249734987
  H         3.4184961051       -2.4152576329        7.2464789298
  H         4.8078543110       -3.0105413106        9.3693989647
  H         4.1588548642       -2.1220881489       11.4765539230
  C        10.5796985813       -0.0820427306       14.4416454829
  C        11.5583186664        0.7262853870       15.2454603767
  C        12.7508135333        1.2077818035       14.6138924090
  C        13.9017469458        1.8185304057       15.2491983868
  C        15.0370366865        2.2942664694       14.5685271254
  C        11.4460273491        1.0075472813       16.7218390009
  C        10.5818109178        2.0359592163       17.2049640642
  C        10.7147476607        2.4710201579       18.4869292167
  C        11.6632554598        1.9915090433       19.3577506656
  C        12.5491882237        1.0029382924       18.9649724312
  C        12.4251849941        0.5009650896       17.6228332859
  H        13.7007053146        2.0797215921       16.3205749025
  H        15.8514831897        2.8077336446       15.1112309923
  H         9.8731890712        2.4388632066       16.5121894315
  H        10.0543315945        3.3019745518       18.7850571095
  H        11.7260064699        2.3714279825       20.3523923763
  H        13.3320775064        0.5743853722       19.6013381149
  H        13.0127062479       -0.3369536008       17.2765678753
  C        10.7417475037       -0.1463906150       13.0090261445
  C         9.7748120995       -0.8068302889       12.2423700681
  C         8.6497239875       -1.3858827207       12.9040464450
  C         8.5434840897       -1.3634791807       14.3306242394
  C         9.5210245135       -0.7619958490       15.0990110513
  C        12.8947857236        1.1412308923       13.1449714425
  C        11.7780140933        0.6487820691       12.3972697841
  C        11.6758880074        1.1586516305       10.9808563682
  C        10.8903020393        2.3162332871       10.8365185063
  C        10.7063238466        2.8613867856        9.5529132755
  C        11.4353532082        2.3553374524        8.4416647609
  C        12.1617700700        1.1959815557        8.6004026218
  C        12.3876292710        0.6545190469        9.8797802665
  H        13.0787947377       -0.2002185586       10.0793851646
  H        12.6899404134        0.6876629547        7.7717966071
  H        11.1246424149        2.6786799197        7.4314521773
  H        10.2169565730        3.7728780898        9.3949628716
  H        10.4590522283        2.7952351726       11.7095490654
  C        14.0136055771        1.7368307213       12.5087519833
  C        15.1107202360        2.1995481307       13.1844131912
  H        16.0533250724        2.4055817658       12.6637844375
  H        13.9923288372        1.7316650534       11.4142379879
  C         9.5173179196       -0.9025863273       16.6083220101
  C        10.3328735620       -1.8728075824       17.1308957788
  C        10.2331331263       -2.3496433354       18.4275416010
  C         9.2500835665       -1.8307604391       19.2535764802
  C         8.4467809434       -0.7601402398       18.7594431975
  C         8.5440604007       -0.2840244173       17.4421601814
  H         7.8717220801        0.4799997595       17.0563874662
  H         7.7709746829       -0.2817507852       19.4443103455
  H         9.1205299219       -2.1511896241       20.2630212231
  H        10.9269903927       -3.1145471588       18.7493428153
  H        11.0757637782       -2.2706509013       16.4426653387
  C         7.4127945269       -2.0332341712       14.9833746019
  C         6.4131583778       -2.5349115373       14.1871796491
  C         6.4877720682       -2.3569736441       12.7586754386
  C         7.5881111121       -1.8687520921       12.1126159463
  H         7.5463021893       -1.7292485386       11.0082239122
  H         5.7445405304       -2.7937885413       12.0951095363
  H         5.5223741266       -3.1101095791       14.5358525736
  H         7.4683844377       -2.2348479981       16.0174850374
  C         9.7561319345       -1.0884560886       10.7565417313
  C        10.3802792876       -2.2461835153       10.2465130529
  C        10.3197837051       -2.5641946032        8.8848211737
  C         9.6830624418       -1.7203203042        8.0263942265
  C         9.1120915646       -0.5332654108        8.4732474445
  C         9.1871368564       -0.2295619207        9.8351096542
  H         8.6600333704        0.6378114190       10.2798283295
  H         8.5865560446        0.1486040597        7.8209949050
  H         9.6082838123       -1.9524582720        6.9667812574
  H        10.8854612522       -3.3847457507        8.4766822329
  H        11.0577064722       -2.8592053408       10.8440272349
