140

  C        11.2888552278        6.9351304479        0.4488058736
  C        10.3298190688        7.7626460658        1.1623422320
  C         9.2859415878        8.3388461052        0.3956972069
  C         8.0985198431        8.9236895511        0.9552848870
  C         7.1562352578        9.6281028898        0.1922715779
  C        10.4341032456        8.1039044374        2.6591553230
  C        11.0122412059        9.3047506911        3.1281801424
  C        10.9898709854        9.6824706139        4.5169713257
  C        10.0940031833        8.9848309552        5.3861677155
  C         9.3436496842        7.9066321891        4.8617827471
  C         9.4998120217        7.5195347188        3.5289890571
  H         7.8860095405        8.8480090279        2.0520851162
  H         6.2499795520        9.9360216559        0.6964223854
  H        11.5897169741        9.9012519885        2.4791682109
  H        11.5058503304       10.5339912705        4.8722005183
  H         9.9017966066        9.3410725694        6.4130557340
  H         8.6858676109        7.3104168783        5.4582375950
  H         8.9948965825        6.6253170275        3.1490861874
  C        11.2185965595        6.8220078753       -0.9952763810
  C        12.2992813153        6.2494476590       -1.6964296063
  C        13.3936521762        5.7628519655       -0.9831131018
  C        13.3722026010        5.7277180914        0.4648707557
  C        12.2493267553        6.1951720730        1.1557238704
  C         9.3526310596        8.4237264322       -1.0575399974
  C        10.3562169864        7.6481872830       -1.7361317443
  C        10.5377427980        7.8361065609       -3.2454318501
  C        11.2561719620        8.9460372955       -3.6226994304
  C        11.0093665930        9.6017483797       -4.8258041207
  C        10.0701261896        9.0762540134       -5.7164674841
  C         9.3894410394        7.8991232522       -5.3813259162
  C         9.6046908069        7.3047913772       -4.1581070142
  H         9.0974598437        6.3742800064       -3.8128406154
  H         8.5541359870        7.5485375977       -6.0086641394
  H         9.7146626737        9.5583720121       -6.6611072084
  H        11.4189153021       10.5994389904       -5.0401084378
  H        11.8867436560        9.4420123546       -2.8941975435
  C         8.3931023456        9.2350160574       -1.7656205983
  C         7.3043355855        9.7785180015       -1.2735716792
  H         6.7204336459       10.4889104285       -1.8335789549
  H         8.5714101368        9.3877386176       -2.8112341732
  C        12.1782558322        5.9032357455        2.7167739288
  C        11.4520267063        4.8042148405        3.1821727887
  C        11.3448868766        4.4742225709        4.5718452682
  C        12.1932665552        5.1142908106        5.5480379158
  C        12.9947641699        6.1423153756        4.9921637914
  C        12.9919454696        6.5387473375        3.6518351249
  H        13.6978638191        7.3554046557        3.4365611573
  H        13.6525500184        6.6363279964        5.7338861682
  H        12.1548272988        4.7427603430        6.5594512001
  H        10.6671385696        3.7412952514        4.9409299649
  H        10.8756398971        4.2517125613        2.4589334529
  C        14.4307822014        5.0647591067        1.1549463453
  C        15.4822514528        4.4061284745        0.5552860113
  C        15.5112964007        4.4392662762       -0.8612841762
  C        14.5179143535        5.0497857930       -1.5780062086
  H        14.4869136668        5.0512512043       -2.6287911637
  H        16.3920651749        3.9246830167       -1.3503242238
  H        16.3185216075        3.9676217807        1.0071264326
  H        14.2071729040        4.8828241366        2.1706334763
  C        12.2334638152        5.7941403411       -3.1267781913
  C        11.1989151511        4.8085845660       -3.5092992218
  C        11.2125280370        4.1923760692       -4.7677113510
  C        12.1003068867        4.6195308813       -5.7481356529
  C        13.0064342745        5.6853684162       -5.4200327979
  C        13.0672039279        6.2457632156       -4.1918567463
  H        13.9161950695        6.8302434323       -3.9330806121
  H        13.5972068069        6.0344107128       -6.2887123395
  H        12.2629325598        4.3063363795       -6.7708137449
  H        10.5418718902        3.4482031318       -5.1237281479
  H        10.4480337503        4.5544523397       -2.7476802627
  C        18.3094711441        6.9324974446        0.9993550892
  C        17.2651457792        7.6905780238        1.5970841951
  C        16.2984970872        8.2800199401        0.7542688549
  C        15.2981047592        9.0387332777        1.4320847753
  C        14.1820860424        9.4882218476        0.6936581847
  C        17.2243023414        7.9833223778        3.1129517056
  C        17.9121544640        9.1524814736        3.4855146901
  C        17.8576414002        9.5398888457        4.8482526963
  C        17.1230616453        8.7779216643        5.7698914477
  C        16.3919676681        7.6658242936        5.3526987343
  C        16.3591684928        7.2938259300        3.9972772276
  H        15.3779548966        9.2998564494        2.5017410230
  H        13.3649765213        9.9163592435        1.1998682883
  H        18.5456053300        9.5338728163        2.7113864500
  H        18.3629834274       10.4035187050        5.3154385564
  H        17.0914055482        8.9677593333        6.8500465393
  H        15.7119053476        7.1764280252        6.0146730734
  H        15.7752387777        6.4417954327        3.6362971290
  C        18.4281622986        6.8313953840       -0.4741259711
  C        19.5585179803        6.1768979442       -1.0327254324
  C        20.5617452178        5.6959521893       -0.1999923002
  C        20.4169759939        5.6828892110        1.2497486760
  C        19.2490589805        6.1713920448        1.8516572404
  C        16.3323858667        8.0853595319       -0.6616842681
  C        17.4606912163        7.4732927612       -1.2577385729
  C        17.6407766278        7.7685005615       -2.7963539944
  C        18.4583466501        8.8627618622       -3.1418861272
  C        18.4947008012        9.3314764804       -4.4504030962
  C        17.6228316186        8.7355229130       -5.4183053554
  C        16.8518872497        7.6373476946       -5.1184673463
  C        16.8629717604        7.1405037119       -3.7717659901
  H        16.1837595815        6.2964408329       -3.5620435046
  H        16.2228628384        7.2142079221       -5.8904102693
  H        17.4737893747        9.1593990186       -6.4523496437
  H        19.1375067269       10.1592675956       -4.7028571301
  H        19.0460167462        9.3820828552       -2.3872204960
  C        15.2603122359        8.7218944059       -1.3507640212
  C        14.1839688054        9.3261448080       -0.7217990068
  H        13.3761385594        9.8070695928       -1.2622072873
  H        15.2379573385        8.8115832745       -2.4806309870
  C        18.9679257438        5.8217205105        3.2488115441
  C        18.1260789119        4.7462161769        3.5573798410
  C        18.1250126060        4.2025753673        4.8306146489
  C        18.7041789091        4.8734477293        5.8995966324
  C        19.5340694476        5.9289707251        5.5980243060
  C        19.6608071154        6.3847251093        4.3011744836
  H        20.3607508928        7.2203706476        4.0986079095
  H        19.9805864015        6.4769780571        6.3890313872
  H        18.5756058265        4.4693756624        6.9094314134
  H        17.5742701151        3.3190954469        5.0516440919
  H        17.6298039377        4.2238276367        2.7828910360
  C        21.4619306095        5.0046052151        1.9782793982
  C        22.5708041989        4.4946146379        1.4349362686
  C        22.7239420377        4.4894668200        0.0185499582
  C        21.7384205167        5.0596466820       -0.7204871095
  H        21.7821777597        4.9161868232       -1.8048749419
  H        23.6276656697        4.1559421033       -0.4915411023
  H        23.2304291081        4.0013846864        2.1472371044
  H        21.3449197533        4.8000695755        3.0476253654
  C        19.5618459787        5.7409910766       -2.4701546814
  C        18.9430891859        4.5087815111       -2.7923339789
  C        18.8836024194        4.0738302383       -4.1040849409
  C        19.5293168267        4.7194060921       -5.1152041506
  C        20.3646335699        5.8322790325       -4.8241230941
  C        20.4223696171        6.2514050257       -3.5005692432
  H        20.9471854349        7.0773197561       -3.1710412615
  H        20.9240797313        6.3576382112       -5.5960552854
  H        19.4005785880        4.2220631097       -6.0765451727
  H        18.2213139566        3.2479049229       -4.3445139477
  H        18.2058577009        4.0323690966       -2.1233579327
