140

  C         5.5400660806       -0.5130590656       16.0719896351
  C         6.5326311367        0.2998965550       16.7766801927
  C         7.5458382749        0.8909920150       15.9477645009
  C         8.7399194674        1.4079894584       16.5583567741
  C         9.8260955484        1.9503017160       15.8878285534
  C         6.4912801593        0.6884420859       18.2311217822
  C         5.6680242538        1.7588956377       18.7023675231
  C         5.8538182291        2.0444526704       20.0459810464
  C         6.6297418744        1.3549636453       20.9780769701
  C         7.3613246457        0.2670177991       20.5003969497
  C         7.3356006563        0.0706309909       19.1216430064
  H         8.7697935814        1.3884429487       17.6175380822
  H        10.7143062096        2.3650314539       16.2872895415
  H         5.0559199315        2.4233588678       18.1350243301
  H         5.3302017201        2.8942808588       20.4470782765
  H         6.5182409910        1.5607710335       22.0213485458
  H         7.9314334251       -0.3699441063       21.1102026654
  H         7.8295188570       -0.7975097374       18.6314047236
  C         5.5095606096       -0.5826655642       14.6392773030
  C         4.4180228286       -1.2577444990       13.9355444282
  C         3.3345024848       -1.7216783639       14.6951876016
  C         3.5058695880       -1.8970910342       16.1405120784
  C         4.6065343050       -1.3334303323       16.7930750194
  C         7.4814349417        0.8740648649       14.5314720102
  C         6.4467237134        0.1317361193       13.8693211023
  C         6.2093397570        0.6367662634       12.4787531491
  C         5.4882750179        1.7769632394       12.2223693748
  C         5.1703996174        2.2316306889       10.9644411172
  C         5.8306761887        1.5438981251        9.9065770921
  C         6.7081100332        0.4933204661       10.1613762810
  C         6.8392585535       -0.0381674464       11.4385015524
  H         7.4392657903       -0.8892042312       11.6040741903
  H         7.3109105567        0.0151825686        9.4333441521
  H         5.7394696132        2.0191969217        8.9466517727
  H         4.5737384569        3.0922132131       10.7666345526
  H         4.9568920958        2.2552726864       13.0177873386
  C         8.5824014126        1.4895219877       13.8698082551
  C         9.6563037009        2.0394357957       14.4962318414
  H        10.3533842207        2.6665618948       14.0002108423
  H         8.5864097356        1.4938162600       12.8046121500
  C         4.7807103973       -1.6287167151       18.2494183930
  C         5.4782065076       -2.7214781211       18.7400176705
  C         5.3577065348       -3.0989429026       20.0805016400
  C         4.6417184215       -2.3346735977       20.9712349853
  C         3.8469816706       -1.3117997927       20.4905519606
  C         3.8839185881       -0.9704387654       19.1159884906
  H         3.2287264806       -0.1811580190       18.7925004772
  H         3.1659517411       -0.8778087070       21.1737772039
  H         4.4415122318       -2.6245381857       22.0237956438
  H         5.8895592805       -3.9836067502       20.3432591628
  H         6.1224931636       -3.3175033194       18.0994991831
  C         2.4682701703       -2.5503800626       16.8578237693
  C         1.2641163837       -2.8436506448       16.2923168784
  C         1.0681845450       -2.7430630821       14.8651301446
  C         2.1337149743       -2.2492031909       14.1165014744
  H         1.9584396408       -2.1712200248       13.0353410177
  H         0.1132091818       -3.0645484680       14.4245678461
  H         0.4417144421       -3.2954285871       16.8496846155
  H         2.5041508388       -2.6314025612       18.0093476502
  C         4.3620223466       -1.5897235230       12.5179843721
  C         5.2890817749       -2.5415425467       11.8986203090
  C         5.3014256592       -2.8369863449       10.5275305735
  C         4.3117252792       -2.3006471914        9.6566625622
  C         3.4893413825       -1.3056171878       10.1551812606
  C         3.5639241823       -0.9907238829       11.5678804298
  H         2.8975420064       -0.1805292319       11.9172123931
  H         2.8196544433       -0.6968604733        9.5407330530
  H         4.3122748262       -2.4524545131        8.5910084236
  H         6.1220787352       -3.4809714133       10.1375252198
  H         5.9322211390       -2.9496711692       12.6520950456
  C        12.7503238178       -0.0932878498       16.2738187542
  C        13.7180322947        0.7124820945       16.9726448682
  C        14.7711515905        1.1953836082       16.1852306238
  C        15.8897318378        1.7361599050       16.8509333373
  C        16.9681744879        2.2959315685       16.2530481250
  C        13.6510392478        0.9322111465       18.4518310083
  C        12.9113793824        1.9276625558       19.0922566943
  C        13.1241804164        2.2177150222       20.4135984429
  C        14.0042837915        1.3819423210       21.0740241253
  C        14.6607240295        0.3065478041       20.4786649696
  C        14.5205854618        0.0583147500       19.1410032844
  H        15.9816834178        1.6128264350       17.9102465545
  H        17.8583691231        2.5148639635       16.7876631409
  H        12.2190375194        2.4464222471       18.4472031816
  H        12.6614335236        3.1651699328       20.8215973944
  H        14.1453782720        1.5440034798       22.1603789321
  H        15.3934574537       -0.2077419048       21.1714214415
  H        15.1147348664       -0.7022145561       18.6437652940
  C        12.7238417819       -0.0908390310       14.7519854174
  C        11.6444089381       -0.7829249137       14.0990676687
  C        10.6119967053       -1.4632424725       14.7656816812
  C        10.6437384497       -1.5300411629       16.2281577591
  C        11.7573359871       -0.9284928854       16.9214014644
  C        14.8272789174        1.1534570411       14.6994811474
  C        13.7050970027        0.6248819534       13.9951918205
  C        13.5699006181        0.9988716128       12.5448683392
  C        12.5445709636        1.8813793669       12.1615280518
  C        12.4438991899        2.2718991475       10.8228804641
  C        13.2834358264        1.8453888785        9.7962548907
  C        14.3060302068        1.0188288205       10.1504515035
  C        14.3826049751        0.5350522728       11.5354433657
  H        15.0532061887       -0.2344981893       11.8812132509
  H        14.8842219233        0.5884499962        9.3227062061
  H        13.1432887972        2.0634603941        8.7492742628
  H        11.6003750094        2.8941567699       10.4928441431
  H        11.7690307212        2.2843362342       12.8425696752
  C        15.8892663642        1.8532693147       14.1217551592
  C        16.9082301134        2.3657329973       14.8799403585
  H        17.6900520058        2.8560656578       14.3144498124
  H        15.8899002621        2.0741114304       13.0219298112
  C        11.7559698836       -1.3679285945       18.3587508662
  C        12.4975765648       -2.4820667356       18.7341408528
  C        12.5415261433       -2.8748397974       20.0898644188
  C        11.7794745721       -2.1609727272       21.0059399110
  C        10.9659881242       -1.0990116433       20.6528647276
  C        10.9907518940       -0.6976784077       19.3574405994
  H        10.4006296768        0.1053412222       18.9340274818
  H        10.4525238117       -0.5604482616       21.4074022590
  H        11.7634610096       -2.5324105583       22.0432518847
  H        13.2110998952       -3.6902715668       20.3315945955
  H        13.1114143427       -3.0335708166       18.0440843448
  C         9.6231777198       -2.4130056198       16.8849424059
  C         8.5683302258       -2.8330346192       16.1625761652
  C         8.4963007000       -2.7043412794       14.7110113722
  C         9.5680097047       -2.0916770922       14.1505953029
  H         9.4018096469       -1.9501937661       13.0748746164
  H         7.6777080198       -3.1805204873       14.1358482034
  H         7.6221416085       -3.1115682368       16.5964778837
  H         9.6500718142       -2.6801595171       17.8794177441
  C        11.6411681137       -1.1325469253       12.5405119543
  C        12.4009827798       -2.2388523444       12.1100317527
  C        12.0778509077       -2.8116961907       10.8942279775
  C        11.1819485780       -2.2670956504       10.0192267460
  C        10.5310595917       -1.1189527218       10.3982215005
  C        10.7878510402       -0.5416385869       11.6379017871
  H        10.2022435065        0.3270819123       11.9650037309
  H         9.8579455453       -0.6926968597        9.6331897057
  H        11.1503556908       -2.7126271985        9.0160037325
  H        12.6899569214       -3.6605699404       10.5970950826
  H        13.0806693204       -2.7358240656       12.8241697480
