140

  C         3.5600128617       -0.0070456802       14.5797617654
  C         4.5903942288        0.6315305382       15.2815694139
  C         5.6654511693        1.2646539895       14.5825990220
  C         6.6708121740        2.0519065452       15.2390648135
  C         7.7298629478        2.6128486403       14.6462334691
  C         4.4710947183        0.8970796182       16.7251163283
  C         3.5035893628        1.8298226329       17.1007810092
  C         3.4400708741        2.3013718416       18.4192192829
  C         4.4089642721        2.0087184202       19.3486273853
  C         5.3816473036        1.0984483510       18.9585976309
  C         5.4150651452        0.4991756466       17.7487837890
  H         6.5553280928        2.2119363378       16.3450305832
  H         8.4653629847        3.2248646128       15.1760564497
  H         2.6667356883        2.0947320241       16.4343751584
  H         2.6580648133        3.0647455641       18.6378566638
  H         4.3133609229        2.3983494309       20.3463909371
  H         6.0239374900        0.7961754936       19.7708698495
  H         6.1977731481       -0.2703774118       17.4588708789
  C         3.4976820873        0.1116154310       13.1039139098
  C         2.4816346132       -0.6496789275       12.4025703588
  C         1.4164430745       -1.2206238861       13.0801881396
  C         1.4492942550       -1.2982737741       14.5182875036
  C         2.5568945201       -0.8171392667       15.2335836056
  C         5.7224858384        1.2473648228       13.1432064761
  C         4.5881752898        0.7953820302       12.4485430055
  C         4.4521177831        1.0446950170       11.0031043951
  C         3.8067081147        2.2392329145       10.5208651174
  C         3.8310982283        2.6652323987        9.2126174798
  C         4.5924029718        1.8800079434        8.2654823548
  C         5.3695627068        0.7554111905        8.7610917803
  C         5.3175251261        0.3744458710       10.1328075231
  H         5.8897595703       -0.4631641417       10.5056843202
  H         5.8313071159        0.0555925407        8.0631498759
  H         4.6491742843        2.1948060854        7.1915373879
  H         3.3107435177        3.5906009010        8.9783495622
  H         3.1173935622        2.7346352437       11.2545093318
  C         6.8511862905        1.8505166344       12.5237397617
  C         7.8085985979        2.5010697380       13.2301788336
  H         8.5123359862        3.1591545581       12.7292606993
  H         6.9654569390        1.8882228399       11.4178825720
  C         2.5964064098       -0.9965311222       16.7366050876
  C         3.5168893209       -1.9960957976       17.2654029593
  C         3.3798672848       -2.4350528467       18.5814345386
  C         2.3642376775       -1.9465523959       19.4360995756
  C         1.4367471856       -0.9821374428       18.9271607128
  C         1.5877650939       -0.5114643439       17.6093667346
  H         0.9951099626        0.3678193072       17.3080548890
  H         0.7276326112       -0.4546669304       19.5910410130
  H         2.2342002510       -2.3327661925       20.4572979558
  H         4.0315074601       -3.2384892220       18.9018023578
  H         4.2333075827       -2.3980428807       16.5497181870
  C         0.2545081571       -1.9159513040       15.1135935400
  C        -0.8393870415       -2.3752814711       14.4819761669
  C        -0.7532595048       -2.4250385930       13.0814790182
  C         0.3191804539       -1.9108403197       12.3905950610
  H         0.4190708540       -2.0777984364       11.3075659934
  H        -1.5592504023       -2.8171745279       12.5186613994
  H        -1.6684677739       -2.7916804741       15.0525612679
  H         0.2534656544       -2.0057081545       16.1465290931
  C         2.6428537278       -0.8965540621       10.9080879987
  C         3.3984564569       -1.9950823944       10.4620120414
  C         3.1626624955       -2.5069608499        9.1980256968
  C         2.2232479745       -1.8919291913        8.3241943000
  C         1.5257047208       -0.7440904512        8.7241791845
  C         1.7868850941       -0.2217074930        9.9676278000
  H         1.3773955148        0.7606657596       10.1095383419
  H         0.8890630765       -0.2640162349        8.0292264804
  H         2.0822682311       -2.2628931481        7.3536595324
  H         3.6961502655       -3.4129770679        8.7901420012
  H         4.1035248819       -2.5412377548       11.0807430518
  C        10.9816181413       -0.0498542036       14.5464998033
  C        11.9648316516        0.6756690328       15.2542014547
  C        13.1468342712        1.1068580018       14.5116475399
  C        14.2851252519        1.7903083428       15.1535129286
  C        15.2912959740        2.3917704427       14.4414254997
  C        11.8432373371        1.0335833741       16.7478073139
  C        10.9553954649        1.9614233233       17.1970584791
  C        10.8454566516        2.4430280096       18.4757960129
  C        11.7198318341        1.9366304307       19.4589421868
  C        12.6638333508        0.9806084334       19.0742881197
  C        12.7341143569        0.5538129145       17.7350128452
  H        14.3745642554        1.8453630592       16.2705535126
  H        16.1592690038        2.8681209348       14.9645716599
  H        10.2012966779        2.3197948835       16.4778106969
  H        10.1435206456        3.2601555156       18.6684664361
  H        11.7415182198        2.3891369448       20.4420446375
  H        13.3939171072        0.6081500525       19.8255181153
  H        13.3939675754       -0.2660581077       17.4634222722
  C        10.9755853273       -0.1159019682       13.0509110976
  C         9.8964535439       -0.6777966529       12.3846275225
  C         8.7581422467       -1.1698428339       13.1315256817
  C         8.8533152803       -1.3289759457       14.5680842524
  C         9.9191231200       -0.7301796155       15.2646568587
  C        13.0788338932        1.1747723900       13.1042853414
  C        11.9751999463        0.5954136199       12.4109458110
  C        11.7696172513        0.9124413522       10.9635236843
  C        10.8144503613        1.9293614151       10.7549872572
  C        10.7169640159        2.5415989779        9.4913425027
  C        11.4399477959        2.0639641828        8.3807550605
  C        12.3682972990        0.9826939006        8.6096211092
  C        12.5248432180        0.4644155134        9.8553820493
  H        13.2654809796       -0.3193110904       10.0068785243
  H        13.0731980819        0.6373771727        7.8213758712
  H        11.3565939244        2.4801624855        7.4043251089
  H        10.0181925165        3.3429905708        9.2870306051
  H        10.3224092016        2.3396323898       11.6059226838
  C        14.0988434234        1.9269480724       12.3907221550
  C        15.2018660391        2.4861255242       12.9880412012
  H        15.9611421993        3.0915041305       12.4869597899
  H        14.0897436724        1.9901856840       11.2986555050
  C        10.0912329697       -1.1316884932       16.6911643843
  C        10.8173955465       -2.3353651254       17.0006190593
  C        10.6584144952       -2.8629026839       18.2788534305
  C         9.8500515711       -2.2167833953       19.2403844749
  C         9.1900442886       -1.0866108150       18.9887123866
  C         9.3470108523       -0.4999681163       17.7103481074
  H         8.8766135258        0.4404874429       17.4554314355
  H         8.6183361691       -0.5606254128       19.7209684681
  H         9.8037250861       -2.5921743593       20.2450887899
  H        11.3013625444       -3.6586912006       18.6617475750
  H        11.4401912697       -2.7947593415       16.2546713667
  C         7.7954493902       -1.9207292172       15.2872936127
  C         6.6668644952       -2.2658579363       14.6013127116
  C         6.6203141389       -2.2057116226       13.2202064818
  C         7.6420309653       -1.6618977215       12.4586352312
  H         7.5119074298       -1.5855987168       11.3663287689
  H         5.7011859940       -2.5919454602       12.8028450838
  H         5.8785008199       -2.7615615394       15.1800279961
  H         7.8962655670       -2.1329475475       16.3044682883
  C         9.9198408640       -1.1456236145       10.9772652227
  C        10.5911091233       -2.3291734603       10.7861647174
  C        10.5563648527       -3.0959045580        9.6017932591
  C         9.7238450671       -2.6515375494        8.5702675692
  C         9.1772076613       -1.3542237034        8.6210820202
  C         9.2214962184       -0.6344777537        9.7893998106
  H         8.7446426327        0.3504967779        9.7321014140
  H         8.6752916518       -0.9279692403        7.7427516712
  H         9.5092475224       -3.3077006698        7.7358101514
  H        11.2082910306       -3.9612873469        9.4940914376
  H        11.1523955844       -2.8184134589       11.5620734128
