140

  C        10.8734107218        7.3135833239        0.9412916468
  C         9.8335109032        8.0216901395        1.6516161014
  C         8.7033288073        8.4876796612        0.9652835181
  C         7.5742069113        8.9794714732        1.7199525004
  C         6.4334599039        9.4109261098        1.0114878677
  C        10.0245989854        8.5359890409        3.1093772317
  C        10.7851512740        9.6583143770        3.3660170631
  C        10.8556680341       10.0887363888        4.7283393782
  C        10.1421962729        9.5190024783        5.7444019601
  C         9.3181483893        8.3829016109        5.4096671192
  C         9.3748360778        7.9102664731        4.1490477611
  H         7.6838951558        8.8534022428        2.7631615784
  H         5.5317069810        9.6799000778        1.4955866278
  H        11.3342961758       10.1459481698        2.5252536083
  H        11.4819357280       10.9843875670        4.9867662452
  H        10.1393171487        9.9114318076        6.7099190135
  H         8.7309529349        7.9681467480        6.2711004945
  H         8.8182216803        6.9871528563        4.0402482442
  C        10.9573350475        7.4132982890       -0.5768286323
  C        12.0527718164        6.6757566631       -1.1859681165
  C        13.0194250471        5.9728491758       -0.3970235658
  C        12.9725148777        6.0335013369        1.0105905382
  C        11.8533928474        6.6411717563        1.6588189041
  C         8.7621528901        8.5428347760       -0.5043679716
  C         9.8847894128        8.1418596364       -1.1978950498
  C         9.8124810482        8.4146303124       -2.6699658922
  C        10.6065438655        9.4456894209       -3.2530774452
  C        10.4734150812        9.6771449213       -4.6446471813
  C         9.5997934611        8.9535438443       -5.4018461146
  C         8.8700524022        7.8838668417       -4.8712909230
  C         8.9784125831        7.5975593091       -3.5058136735
  H         8.3335739156        6.8384461890       -3.0312694171
  H         8.2328417120        7.3049963291       -5.4938354959
  H         9.5319088288        9.1782596521       -6.4649332222
  H        11.0862368014       10.5399569419       -5.0710028780
  H        11.4184150179        9.8932695265       -2.6751835754
  C         7.5993346314        9.1633394860       -1.1167611824
  C         6.5221874404        9.5458809010       -0.3910264491
  H         5.6685645505        9.8179398036       -0.9236591763
  H         7.5232116335        9.3765738818       -2.1669463330
  C        11.6107507669        6.2044912692        3.1243483135
  C        11.0258369779        4.9883168456        3.4964044376
  C        10.9830609572        4.5519775022        4.8150530580
  C        11.7244245705        5.2780223132        5.7367892301
  C        12.3830245679        6.4700180270        5.4114916363
  C        12.3141776508        6.9485732671        4.1011546189
  H        12.7899231058        7.9206179852        3.9127049580
  H        13.0524558045        7.0418892315        6.0671468010
  H        11.9380538991        4.8827392604        6.7495075144
  H        10.5394559278        3.5653298769        5.1187726923
  H        10.6756516671        4.2731972512        2.7259446365
  C        13.9531477601        5.3452079455        1.7944802638
  C        14.9458306297        4.5705323500        1.1460914684
  C        15.0540403021        4.5012208194       -0.2868117254
  C        14.1005473901        5.1650346005       -1.0561471603
  H        13.9627684712        5.0712018764       -2.1588980278
  H        15.7879360009        3.8528002760       -0.7787132403
  H        15.7286784579        4.1519800755        1.7945378369
  H        13.9913964652        5.4219585539        2.8655707533
  C        12.0376088293        6.2562804548       -2.6531764105
  C        11.2813768354        5.1021727292       -3.0074591819
  C        11.4514897787        4.5587233079       -4.2919356986
  C        12.3733516033        5.0783592156       -5.1679019570
  C        13.1305786895        6.2047233239       -4.7640566327
  C        12.8515868079        6.8736817802       -3.5867966058
  H        13.2876545771        7.8312971686       -3.4071071252
  H        13.8871168911        6.5413353509       -5.4511597305
  H        12.6918957788        4.6947301649       -6.0918452704
  H        10.7937401588        3.7140752470       -4.5755643745
  H        10.5907151236        4.5926771931       -2.2966948784
  C        18.0389159909        7.4801290345        1.4565821370
  C        16.9520848880        8.1501446476        2.1289966229
  C        15.8817441261        8.6059943517        1.3121187514
  C        14.8206888355        9.3294247869        1.9804516306
  C        13.7549197615        9.8473115299        1.2366319990
  C        16.9313485966        8.4633817934        3.5534663707
  C        17.5363873856        9.5837936572        4.0703299494
  C        17.4622769012        9.9142500342        5.4159826672
  C        16.7221236688        9.1512536549        6.2740589964
  C        16.0282857111        8.0487930381        5.7925993779
  C        16.1711770456        7.6795883855        4.4315965897
  H        14.8157577987        9.4639788400        3.0764768699
  H        12.9268962027       10.2508718374        1.7432643833
  H        18.0216055635       10.3749749972        3.4825543523
  H        17.9407660394       10.8089444667        5.8571791979
  H        16.5926343482        9.4957830697        7.2853676419
  H        15.3795746135        7.5733533771        6.5271959000
  H        15.6934626339        6.7540928346        4.0926344771
  C        18.0636365419        7.3772614378        0.0220099245
  C        18.9965108970        6.5443811988       -0.6338301881
  C        20.0783705675        5.9716086309        0.1062409295
  C        19.9720709199        5.9870426997        1.5577966257
  C        18.9362044260        6.6682698593        2.1910435304
  C        15.9248059261        8.6064337821       -0.1177792143
  C        17.0095787534        7.9871177533       -0.7674874621
  C        17.2120715110        8.2832302833       -2.2200059843
  C        18.0858430508        9.3102313532       -2.5598600860
  C        18.1686358240        9.6921024132       -3.8762063733
  C        17.3519606262        9.0972593143       -4.8565617132
  C        16.5754033945        7.9440849907       -4.5187458391
  C        16.5920907864        7.5522092808       -3.1975715326
  H        15.8996982012        6.7124922828       -2.8757945937
  H        16.0717682156        7.3779129610       -5.3180368275
  H        17.3692059909        9.4395828373       -5.8426779624
  H        18.8904274607       10.4927222561       -4.2218698628
  H        18.6184387559        9.7728877438       -1.7347881142
  C        14.8119240071        9.2223056791       -0.8219288740
  C        13.7546689877        9.7821909751       -0.1731308180
  H        12.8308614458       10.0914715582       -0.6252848573
  H        14.8039247202        9.2024657592       -1.9136447951
  C        18.6816375712        6.3202376936        3.6282439793
  C        17.9404155656        5.1826812396        4.0483170824
  C        17.9782519469        4.6301131089        5.3622603311
  C        18.9224982057        5.2380592300        6.2916129439
  C        19.7104465035        6.3879755687        5.9146092667
  C        19.4638722474        6.9492774129        4.6112256877
  H        19.9154186925        7.8619957247        4.2394300137
  H        20.3846437123        6.8019122719        6.6483488427
  H        18.8860795840        4.9214239638        7.3136538772
  H        17.5373137747        3.7394231393        5.7321037549
  H        17.4172863241        4.5692599982        3.2835573546
  C        20.9301422853        5.2304962328        2.3436363360
  C        21.9202808383        4.4389473651        1.6834950898
  C        21.9782569959        4.4227505376        0.2847320899
  C        21.1019771519        5.1806941004       -0.5147654275
  H        21.0348462013        4.9594983820       -1.6043927866
  H        22.7004092893        3.7425139126       -0.2590309324
  H        22.7730619817        4.1040760261        2.2348965399
  H        20.7724000518        5.0578068099        3.3875796349
  C        18.9286859512        6.0836620669       -2.1831892816
  C        18.1361707467        4.9697313039       -2.4890988926
  C        18.0347616305        4.4443938150       -3.7779442819
  C        18.6806458737        5.0567846681       -4.8193295887
  C        19.5815421907        6.0561770916       -4.5597999712
  C        19.7504931330        6.5941748135       -3.2685064008
  H        20.5703649370        7.3565769314       -3.1401335183
  H        20.1935715603        6.4963173504       -5.3789699202
  H        18.5450630580        4.7503670941       -5.8188808357
  H        17.6285268557        3.4864106053       -4.0018480501
  H        17.7668936614        4.3952993558       -1.6475190699
