140

  C         1.2987783334        0.9244720549       14.7963323857
  C         2.3870093646        1.4843097400       15.5153924419
  C         3.4447869514        2.0795005470       14.7616326259
  C         4.5455672236        2.7085032079       15.4354258172
  C         5.5489204386        3.3560705051       14.8247040718
  C         2.2935145810        1.8600404517       16.9505167369
  C         1.4695101641        2.9506054638       17.2783876701
  C         1.4081753424        3.4193538481       18.6332200993
  C         2.0465263326        2.6817948892       19.6659645364
  C         2.8913280951        1.6831550559       19.2909354814
  C         3.0424927236        1.2884297119       17.9305422626
  H         4.4549169250        2.7618781083       16.5006014348
  H         6.2985986043        3.9722719257       15.3628032559
  H         1.2721026672        3.6686998248       16.5018957578
  H         0.8654983313        4.3569163474       18.8583844759
  H         2.0739322824        3.0973018917       20.6709551118
  H         3.5612921383        1.2330982326       20.0049760578
  H         3.7821391153        0.4761186142       17.5891083527
  C         1.3178894907        0.9685431066       13.3310944907
  C         0.3262281621        0.2417014120       12.7083344129
  C        -0.8611429606       -0.2264454247       13.3267881292
  C        -0.8799015385       -0.2685681312       14.7266689889
  C         0.2118879524        0.2263100168       15.4256409974
  C         3.4998923885        2.0834204008       13.2541272143
  C         2.3305398342        1.6671592081       12.6245008297
  C         2.2816381172        2.0342731508       11.1269224817
  C         1.4580069696        3.1844084268       10.7589466401
  C         1.4629777121        3.6344639328        9.4480219108
  C         2.3797139729        3.0497371470        8.5144661462
  C         3.2028184598        2.0188922216        8.8597555540
  C         3.0121503096        1.4249937622       10.0923156400
  H         3.5460414461        0.5187093164       10.2660893055
  H         3.8853167341        1.5962345778        8.1889962939
  H         2.4359029780        3.4489043781        7.5042564580
  H         0.8464593127        4.4809260950        9.1086196639
  H         0.6968684852        3.5281162782       11.4346772329
  C         4.6290919126        2.6912529631       12.6110941117
  C         5.6122865703        3.3666326466       13.3947694186
  H         6.5507286175        3.6628989649       12.9167572426
  H         4.6642857954        2.8993560107       11.5546404593
  C         0.3198843220       -0.1745727182       16.8458995016
  C         1.0747748845       -1.1969957751       17.4239351397
  C         0.9857275358       -1.6371997614       18.7381678096
  C         0.1234749114       -0.9193550824       19.6148660399
  C        -0.6295473299        0.1406805639       19.0502851292
  C        -0.5642415925        0.4504114960       17.7283719694
  H        -1.1141666889        1.2778569166       17.2888510181
  H        -1.1641453399        0.7593905110       19.7467668511
  H         0.1829281416       -1.2168172846       20.7044617479
  H         1.5886227078       -2.4269506991       19.0316661204
  H         1.8613431415       -1.6969683091       16.8772062801
  C        -1.9718789024       -0.9221733965       15.4129201080
  C        -3.0167303566       -1.5161102882       14.7365611038
  C        -2.9364889260       -1.5050004281       13.3050851685
  C        -1.9227859920       -0.9135348502       12.5777025133
  H        -2.0226543740       -0.9266717097       11.5098775478
  H        -3.8142623523       -1.9330273149       12.8071242562
  H        -3.8143791346       -2.0188575300       15.2654730911
  H        -1.9111409880       -0.8436299779       16.5476830695
  C         0.4010199706       -0.0271550911       11.2248179134
  C         1.1728725931       -1.1176530322       10.7142902982
  C         0.9725305886       -1.4468220415        9.3117674901
  C         0.1619789972       -0.7246365022        8.4173062319
  C        -0.5979732711        0.3273394421        8.9680168296
  C        -0.5244488511        0.6731856054       10.3565941779
  H        -1.2228714865        1.3871643084       10.7794651951
  H        -1.2443932773        0.9025590134        8.3459588431
  H         0.1499062164       -1.0141763061        7.3636867095
  H         1.6385674610       -2.2616715714        8.9728015825
  H         1.8448886731       -1.6460171077       11.3367809228
  C         8.6364069284        0.8482467786       15.2091476303
  C         9.7428234557        1.5396281991       15.9361244353
  C        10.7517099915        2.1986680601       15.2059057214
  C        11.8284935243        2.7644117528       15.8229096260
  C        12.8704165477        3.4176471656       15.2053062603
  C         9.5228760586        2.0879323551       17.3622074213
  C         8.4360105346        2.9675254399       17.7311156476
  C         8.3698194460        3.4539135378       19.0609214894
  C         9.3226705812        3.0787565694       19.9804299848
  C        10.4167560689        2.2879127581       19.6038666894
  C        10.4889740455        1.7955317097       18.3127840850
  H        11.8778747303        2.7520821940       16.9123658444
  H        13.6996288296        3.7350557694       15.8892003567
  H         7.7254599963        3.0547382198       16.9060171161
  H         7.5073111722        4.0462898960       19.2935128845
  H         9.2474145939        3.6183917016       20.9119102057
  H        11.2943315352        2.0917022038       20.3125557115
  H        11.3685720494        1.1471917414       18.1048219747
  C         8.6278657985        0.8594025164       13.7289574206
  C         7.6534470865        0.1841240201       13.0194835145
  C         6.5478713356       -0.4091142056       13.7026158505
  C         6.4873657537       -0.3450340091       15.1248039644
  C         7.5635997036        0.2271216339       15.8895172738
  C        10.6989897445        2.1751100606       13.7371153250
  C         9.6193098382        1.6411916492       12.9975038786
  C         9.5364224196        1.9752426371       11.5108714724
  C         8.8342085500        3.1398872752       11.1272241503
  C         8.8388904556        3.6152784628        9.8260481978
  C         9.6938667518        3.1277613506        8.8541817272
  C        10.5164414416        2.0037079628        9.2385516694
  C        10.3939992083        1.4747452049       10.5365692480
  H        10.9386124787        0.5307941804       10.7462992758
  H        11.1641802865        1.4908699594        8.5557240126
  H         9.5841834155        3.5260918100        7.7864903133
  H         8.0806432851        4.3552886998        9.4843959497
  H         8.2563972555        3.6386703111       11.9085189771
  C        11.8528870323        2.7947657432       13.0849449035
  C        12.8326405448        3.4626524437       13.8009332841
  H        13.5492806538        4.0323433322       13.2099200818
  H        11.7914619242        2.7667637806       11.9774359680
  C         7.6049427711       -0.0450949741       17.3754218274
  C         8.3360470979       -1.1806688589       17.8232753317
  C         8.3327336335       -1.6459770945       19.1603942325
  C         7.4392170033       -0.9724563803       19.9804985051
  C         6.6201582595        0.0954861775       19.5258774138
  C         6.8131332594        0.6665390826       18.3134270861
  H         6.3245900103        1.5904212771       17.9485953311
  H         5.9099837280        0.4596426189       20.3236710831
  H         7.2988747440       -1.2945991717       21.0149996360
  H         8.9025828990       -2.5119697411       19.4699636797
  H         8.9582926335       -1.6861621426       17.0633846208
  C         5.4920400523       -1.0996576961       15.8584942121
  C         4.4908657638       -1.7079150586       15.1687263912
  C         4.4055379981       -1.6057484551       13.7026509051
  C         5.4155563748       -0.9770986263       13.0125653499
  H         5.3830475943       -0.7806828822       11.9442030646
  H         3.5034145002       -1.9317182533       13.1726996560
  H         3.6617451816       -2.2677814332       15.6274401674
  H         5.4768389376       -1.0456377741       16.9421523388
  C         7.7652408637       -0.0730304443       11.5405802977
  C         8.5889040264       -1.1008688068       11.0804027894
  C         8.5053946961       -1.5197130443        9.7085870509
  C         7.7870646717       -0.7439257636        8.7898213964
  C         7.1102313183        0.3604369875        9.2931813083
  C         7.0232528181        0.6605912935       10.6679257509
  H         6.3241456386        1.4277780047       11.0911880116
  H         6.5642036333        1.0090222270        8.6962915442
  H         7.8347170632       -0.9155043499        7.7390641732
  H         9.0772171100       -2.3831895468        9.3238216294
  H         9.2883134714       -1.4940014457       11.8356294333
