140

  C        10.5998842212        7.1965586707        0.9355047053
  C         9.5600158825        7.9520786290        1.5653289743
  C         8.5638333998        8.5192974296        0.8069829303
  C         7.4352483139        9.1255100097        1.4237747667
  C         6.3267086945        9.5702751611        0.6929592906
  C         9.4679440880        8.3159763535        3.0348713628
  C        10.3781097865        9.3080754424        3.4512514171
  C        10.4924653332        9.8313646783        4.6986397256
  C         9.6789648235        9.3154132402        5.6606362448
  C         8.8221573297        8.1933986102        5.3841792307
  C         8.6444827872        7.6958189268        4.0654647644
  H         7.4647022374        9.2768645180        2.4634621953
  H         5.5594550791        9.9750352293        1.3106821518
  H        11.0389856456        9.6488590910        2.6563452770
  H        11.3216988326       10.5415001518        4.8521950358
  H         9.7951930273        9.7136799052        6.6822067348
  H         8.2870498700        7.6542313896        6.2499255547
  H         7.9826976819        6.8105817335        3.8853373163
  C        10.6423294349        7.2272317448       -0.5129028349
  C        11.6966257473        6.6219719531       -1.2866308836
  C        12.7211547257        5.9540228962       -0.5073894512
  C        12.6731794114        5.8624976931        0.9537179617
  C        11.5091598877        6.3526019627        1.5839243870
  C         8.5572810029        8.4675049582       -0.6311765265
  C         9.6919646146        7.9781622690       -1.2633430447
  C         9.8956378422        8.3192997077       -2.7193930647
  C        10.7636872299        9.4132308561       -2.9391786424
  C        10.7815171655       10.0284201931       -4.1919739830
  C        10.0568147956        9.5044059424       -5.2918660252
  C         9.2655654416        8.3123191643       -5.1109832983
  C         9.0858132533        7.9218200800       -3.7428239218
  H         8.3669236867        7.1329005052       -3.6135034596
  H         8.7311055483        7.8506477352       -5.9162599949
  H        10.1387341015        9.9239000794       -6.2987708640
  H        11.3021316980       11.0008007568       -4.2554654643
  H        11.1983407621        9.8140658740       -2.0399163044
  C         7.3955971100        9.0011273188       -1.3575745911
  C         6.2911468599        9.4704470102       -0.6925411119
  H         5.4327417614        9.8239822379       -1.2312549681
  H         7.4138464540        9.1127815025       -2.3957649324
  C        11.3616196462        5.9182865181        3.1258732031
  C        10.6390809245        4.7799049013        3.4843785641
  C        10.5062009757        4.3644685082        4.7875580697
  C        11.1588315863        5.0465764818        5.7681880010
  C        11.9724558730        6.1612390255        5.5011208265
  C        11.9541590113        6.7045331313        4.1848309030
  H        12.4474762604        7.6599797338        3.9188569355
  H        12.4964971325        6.5832051438        6.3600896145
  H        11.1349464524        4.7095312472        6.8298364479
  H         9.9272379393        3.5045140906        5.1262043310
  H        10.1214644043        4.2098721752        2.7163954156
  C        13.7415933790        5.1386617514        1.5600730697
  C        14.8671845524        4.7063781894        0.8407772763
  C        14.9265135602        4.8310230273       -0.5919598426
  C        13.8681757470        5.4168896863       -1.2457759529
  H        13.7996932976        5.5626668253       -2.3381753076
  H        15.7844774789        4.4186655578       -1.1361015289
  H        15.7937155123        4.2288495247        1.2411186941
  H        13.6929800718        4.8957842448        2.6379102472
  C        11.5592755823        6.1656093022       -2.7631409536
  C        10.5888545973        5.2552588587       -3.1168347973
  C        10.5094458872        4.7458739689       -4.4274997527
  C        11.4123602563        5.2772124670       -5.3626397887
  C        12.4246591991        6.1509656096       -5.0150378512
  C        12.5271709119        6.6103462925       -3.7107319976
  H        13.2111491213        7.4181050562       -3.3296100699
  H        13.1670786762        6.3975772093       -5.7711426259
  H        11.3036027588        4.9431466616       -6.4382382861
  H         9.7004965700        4.0569739809       -4.6269020292
  H         9.8295071186        4.9114953343       -2.3962562328
  C        17.8046881576        7.2929010940        1.0656564629
  C        16.7205605390        7.9411677652        1.7255820542
  C        15.6454202494        8.5152596243        0.9121792932
  C        14.3645064910        8.9608409261        1.4556631139
  C        13.3813700728        9.4730748030        0.6282752787
  C        16.8609964598        8.2435636813        3.1552172335
  C        17.7027735123        9.2306391027        3.7321764250
  C        17.6544353315        9.5269637283        5.0609515219
  C        16.7751071766        8.9548930594        5.9672912393
  C        15.9257387775        7.9628412368        5.4283110476
  C        15.9162490587        7.7489868696        4.0282347421
  H        14.0641996343        8.7094772697        2.4439164894
  H        12.3992360561        9.6405301872        1.0579244949
  H        18.4790512357        9.6925177055        3.0895201399
  H        18.2998685431       10.3019173329        5.4223467818
  H        16.8902920380        9.0971716436        7.0508966197
  H        15.1126751901        7.4242194134        5.9276193848
  H        15.1581910907        7.0008337929        3.7472862597
  C        17.8757759111        7.3248750965       -0.4501909259
  C        18.9953402786        6.7192739304       -1.0925322816
  C        20.0636536861        6.1743168997       -0.3493365720
  C        19.9280889872        6.0516592685        1.1214709751
  C        18.8419085052        6.6651915755        1.8595778942
  C        15.7487489997        8.5091100926       -0.5335254708
  C        16.8714664806        7.9752548839       -1.2086027631
  C        16.8891669830        8.3729696954       -2.7048796632
  C        17.6272796744        9.4844826387       -3.2007223545
  C        17.5260967790        9.8891132812       -4.4996499344
  C        16.9048519232        9.1288233486       -5.5109847066
  C        16.1256478118        8.0174199357       -5.0527142331
  C        16.0457718726        7.6877137474       -3.6910143188
  H        15.2777922761        6.9459869062       -3.4377218790
  H        15.3792584933        7.5236131656       -5.7460631234
  H        16.9894465000        9.3983506847       -6.5463295520
  H        18.0494537156       10.8138890850       -4.7008003104
  H        18.2406067793       10.1165353925       -2.5242940389
  C        14.8475166286        9.3068220328       -1.2986536014
  C        13.7111764188        9.8152735122       -0.6992224008
  H        13.0296815955       10.3971442227       -1.2588667107
  H        15.1111216201        9.3794594181       -2.3259377219
  C        18.6554372875        6.2866145226        3.2784824486
  C        17.8020095265        5.1985157951        3.5645701369
  C        17.7983656202        4.6086742655        4.8168019786
  C        18.6805762095        4.9194752819        5.8083894331
  C        19.5512225026        5.9876485124        5.5191320045
  C        19.5367933171        6.7335361584        4.3176133463
  H        20.1591211002        7.6487231431        4.1455385056
  H        20.3568240867        6.3036183817        6.1906047537
  H        18.7232591723        4.4138309969        6.7694325951
  H        17.0855540957        3.8120595767        5.0592285647
  H        17.0867322378        4.9176822122        2.7705579537
  C        20.8451492439        5.2676269393        1.7830826459
  C        21.9474677839        4.6943025031        1.1232625323
  C        22.1456299939        4.8476582497       -0.2227028053
  C        21.1762494155        5.5435579285       -0.9347847484
  H        21.2385841519        5.5436276976       -1.9954374821
  H        22.9989217014        4.4015702633       -0.7264216499
  H        22.6195936188        4.1058863614        1.7126880138
  H        20.7308265551        5.0776091980        2.8401983690
  C        18.9370096397        6.3947633122       -2.5780746791
  C        18.1087419681        5.2802173022       -2.8883747631
  C        17.9975719331        4.7620940831       -4.1965898296
  C        18.7277063788        5.3312352084       -5.2109247175
  C        19.6497494515        6.2754799102       -4.8716956529
  C        19.7559810106        6.8263956255       -3.6318920473
  H        20.3509527230        7.6546188862       -3.3602300412
  H        20.2609680527        6.8344509870       -5.6085222936
  H        18.6278573998        5.1032788748       -6.2454139170
  H        17.4165181146        3.8836017279       -4.3517751506
  H        17.5472950290        4.7514725636       -2.0917534053
