140

  C         3.8387251594        0.3166749414       14.8969056558
  C         4.8980771282        0.9980716432       15.5344957685
  C         6.0147358451        1.4196896849       14.7984424814
  C         7.1800606453        1.9388913103       15.4282884096
  C         8.3025838263        2.4000331048       14.7693655836
  C         4.9242983784        1.3620812960       17.0061655950
  C         4.2376085957        2.4668497389       17.4566740889
  C         4.3647462870        2.9405818397       18.7548944284
  C         5.1142055375        2.2441156879       19.6805376882
  C         5.8960778534        1.1743412075       19.2753944327
  C         5.8136248452        0.7231161003       17.9380328655
  H         7.2537313961        1.9754345232       16.5342044316
  H         9.1428581774        2.8975009385       15.2427052792
  H         3.5818539865        3.0240674411       16.8055599773
  H         3.8366576441        3.8426842711       19.1264706066
  H         4.9923989061        2.5033900714       20.7502620365
  H         6.5813720683        0.5888807196       19.9045574709
  H         6.4218318549       -0.1221587102       17.5841996346
  C         3.6846814857        0.3489764530       13.4376366079
  C         2.6516865013       -0.4398991987       12.7605090786
  C         1.6140492212       -1.0488784075       13.5601733581
  C         1.6940227326       -0.9619480907       14.9834760471
  C         2.9110432350       -0.4381309528       15.6269771532
  C         5.9387356635        1.5115483552       13.3454820595
  C         4.6698259040        1.1315824915       12.7309364296
  C         4.4988917384        1.4532888063       11.2896841187
  C         3.5232969221        2.4604525602       10.8774136290
  C         3.3055812073        2.8358147301        9.5657694932
  C         4.1353755705        2.4405952413        8.5546232873
  C         5.0157859619        1.3973058778        8.9114938944
  C         5.2055705057        0.8958589915       10.2391026840
  H         6.0018664664        0.1505960878       10.2637726319
  H         5.6062089645        0.8759745441        8.1713932575
  H         3.9352284436        2.7728697741        7.5476218906
  H         2.5145107645        3.5590099325        9.3574709771
  H         2.9277295520        2.8568456224       11.6916863678
  C         7.0273740960        2.1253190897       12.6213158639
  C         8.1255397107        2.5789639346       13.3483550427
  H         8.9307404058        3.0515752019       12.7858815653
  H         6.9572118964        2.2619335683       11.5443531305
  C         3.1291694488       -0.7502502842       17.0793511448
  C         3.9560066212       -1.7970095470       17.4459197844
  C         3.9989938185       -2.2787358139       18.7848436073
  C         3.3658895805       -1.6027634519       19.8364466761
  C         2.4765086007       -0.5826799369       19.4755150469
  C         2.3741383937       -0.1784221593       18.1021460853
  H         1.6422560293        0.5991874645       17.9527153324
  H         1.7817581392       -0.1725864659       20.2690644240
  H         3.3120347732       -2.0515881030       20.8340732105
  H         4.6884893901       -3.1020758131       19.0592569381
  H         4.5628829109       -2.2834597558       16.6651467742
  C         0.6776186376       -1.6735876575       15.7007301962
  C        -0.3741040344       -2.3102400235       15.1166459691
  C        -0.4811014645       -2.3190894689       13.6929512867
  C         0.4737712284       -1.6572785010       12.9360522019
  H         0.3835193741       -1.6191648955       11.8556985978
  H        -1.3315799463       -2.7578375440       13.2604675836
  H        -1.1008420422       -2.7398928967       15.7103227591
  H         0.7010166169       -1.6344564513       16.7967111040
  C         2.6242202561       -0.7627348389       11.2971020780
  C         3.4057955266       -1.9100942076       10.9497518137
  C         3.3787811951       -2.4202447987        9.6123790853
  C         2.6265597981       -1.8784276244        8.5961027303
  C         1.8748177275       -0.7593393698        8.9305987988
  C         1.8672253057       -0.2468802901       10.2863917128
  H         1.1676525719        0.6055634742       10.3944659835
  H         1.2273127775       -0.2271705892        8.2680755901
  H         2.6679394523       -2.2085177550        7.5270694244
  H         4.1029599156       -3.1722690558        9.3049820851
  H         4.0141639598       -2.3764639753       11.7392232781
  C        11.0263835711        0.2634823204       14.8253538531
  C        12.1281190827        0.8775516390       15.5055960855
  C        13.1304328057        1.5230883738       14.7663004734
  C        14.2325694602        2.2578936489       15.3544679474
  C        15.2939673114        2.7839668784       14.6785148784
  C        12.0178802283        1.2347505747       16.9031732493
  C        10.9970274913        2.1110220968       17.3938867905
  C        11.0800623552        2.6418323475       18.6746755347
  C        12.0428505807        2.0813229071       19.5094583005
  C        13.0532342861        1.1835382402       19.1217532401
  C        13.0174901603        0.7901464158       17.7846460962
  H        14.3527774370        2.2372327861       16.4292936702
  H        16.1418223632        3.2126511738       15.1068087135
  H        10.1052330631        2.4072035207       16.8298091290
  H        10.2885187756        3.3384934654       18.9996918271
  H        11.9969593057        2.2893794108       20.5467875017
  H        13.6906993260        0.7368584942       19.9007408858
  H        13.8349525127        0.1196900532       17.3905261633
  C        10.9772165733        0.2574904847       13.3069244277
  C         9.8487573035       -0.3240796355       12.6791925445
  C         8.8088900789       -0.8784769498       13.4913237912
  C         8.8420794182       -0.9737289104       14.9108484557
  C        10.0838913211       -0.5333145420       15.5494704732
  C        13.1611066191        1.4417828569       13.2909447990
  C        12.0303384252        0.9348426577       12.6009375487
  C        12.0333785920        1.1195334947       11.1177753990
  C        11.1890222572        2.0984778359       10.5858156314
  C        11.2560971148        2.4213896457        9.1868092906
  C        12.1363042941        1.7680063715        8.3387203808
  C        12.9337143714        0.7413276806        8.9090617188
  C        12.8902897358        0.4305583306       10.2577798449
  H        13.4427619749       -0.3624312962       10.6174015740
  H        13.5736986099        0.2039969216        8.1996954153
  H        12.1763984980        1.9287914050        7.2818328085
  H        10.6999623068        3.2472183745        8.6912851356
  H        10.5548018143        2.6517797256       11.2961211468
  C        14.3242081450        1.9588565157       12.6014992182
  C        15.3641660023        2.6029683626       13.2592417920
  H        16.2670892522        2.9747165855       12.7299205875
  H        14.3830701017        1.7153929179       11.5220001094
  C        10.3575329091       -0.9890071552       16.9865026906
  C        11.4283621215       -1.8177345761       17.2035868034
  C        11.5783017231       -2.5115346370       18.4516617944
  C        10.6306435207       -2.3445599478       19.4372664512
  C         9.6231331566       -1.3618776676       19.2907187552
  C         9.5619098218       -0.7102212767       18.0796525790
  H         8.8921460065        0.1316819574       18.0232685375
  H         9.0881305467       -1.0676250028       20.2106643653
  H        10.6565076696       -3.0838757797       20.2626481553
  H        12.4325692788       -3.2004959353       18.4806497883
  H        12.0381777690       -2.0313876946       16.3231502908
  C         7.8399511407       -1.7560445807       15.5560595208
  C         6.7302321454       -2.2609894829       14.9042268634
  C         6.6078894305       -2.0538397311       13.4989895854
  C         7.6547532963       -1.3738742426       12.8078569802
  H         7.5339303090       -1.2346309466       11.7547717095
  H         5.8207725104       -2.4810195049       12.9160704362
  H         6.0215662090       -2.8757352994       15.4552978513
  H         8.0664231348       -1.9455430882       16.6172334166
  C         9.7651597922       -0.6415744223       11.1699439799
  C        10.4366510242       -1.8389372168       10.6747322283
  C        10.0835704224       -2.3736188157        9.4361815380
  C         9.1304125100       -1.7096735732        8.6539057132
  C         8.6026448031       -0.4817765539        9.0659516865
  C         8.9245136613        0.0463980102       10.2988433076
  H         8.4930733852        0.9582709994       10.5949717278
  H         8.1402099203        0.2139885827        8.3470268607
  H         8.8855476418       -1.9558424757        7.6341939254
  H        10.5201824218       -3.2798577259        9.0022347481
  H        11.2581462032       -2.2537519812       11.2276410449
