140

  C         1.7655531403        0.7648020647       14.9644305660
  C         2.7208536217        1.4919359758       15.7557297747
  C         3.8341109072        2.1522142027       15.0764715740
  C         4.9125330861        2.7648533343       15.8145695681
  C         6.0556728981        3.1878969294       15.2118798765
  C         2.6101266893        1.6238445283       17.2668151396
  C         2.0319363655        2.7914644539       17.7709368722
  C         2.1669758490        3.1536652293       19.0955917435
  C         2.9846402264        2.3479360499       20.0138700281
  C         3.6656855994        1.2644516860       19.4626685917
  C         3.4347007083        0.8525806137       18.1784906277
  H         4.9380283247        2.7053186190       16.9400184843
  H         6.8768409817        3.5060566453       15.8314984388
  H         1.4401594465        3.3757481408       17.0336578617
  H         1.6178194631        4.0382777565       19.4443857368
  H         3.0645755882        2.6232634457       21.0336611797
  H         4.2056716149        0.5580756358       20.1074595821
  H         3.9840407576       -0.0252391546       17.7953205545
  C         1.7952009438        0.8487810707       13.4816807698
  C         0.8170834490        0.1197543075       12.7570002286
  C        -0.2732631810       -0.4810186666       13.3799318950
  C        -0.3910215325       -0.5410944435       14.8081840993
  C         0.6790070213        0.0111477051       15.5755352084
  C         3.8703520912        2.1232938116       13.6135032783
  C         2.8515821720        1.4828078045       12.8363569202
  C         2.8420072471        1.8139531327       11.3957136428
  C         1.9168137114        2.7825340730       10.9618692073
  C         1.8278554126        3.1700075198        9.5951130840
  C         2.8435265121        2.8634833548        8.7482434516
  C         3.8043827669        1.9683458877        9.2163153758
  C         3.6913283870        1.2768012382       10.4352019749
  H         4.3608308857        0.4710763879       10.6931981884
  H         4.5767321246        1.6197444731        8.5033476287
  H         2.8287332237        3.1839831603        7.6927427066
  H         1.0454488288        3.8818031834        9.2460442585
  H         1.1382440771        3.2344879445       11.5959128350
  C         5.0172789187        2.7502898395       13.0403125044
  C         6.1249620443        3.1909988064       13.8053186861
  H         7.0652642220        3.5704933969       13.3226114002
  H         5.1922900522        2.8915041276       11.9689770943
  C         0.5922105167       -0.2261405869       17.0802595306
  C         1.3013233464       -1.3436912067       17.5567746180
  C         1.4314951481       -1.5967899269       18.9797017456
  C         0.6645177200       -0.8269923814       19.8264395563
  C        -0.0989304349        0.2322639741       19.2947563669
  C        -0.2586009660        0.4387960112       17.9437973922
  H        -1.0389836625        1.1651153851       17.6068541416
  H        -0.6721972039        0.9183196188       19.9168160100
  H         0.8615884479       -1.0007045992       20.9304135205
  H         2.0336247385       -2.5063427888       19.2549988181
  H         1.9270652374       -1.9853831591       16.9171778963
  C        -1.5087411540       -1.2063613439       15.4773371078
  C        -2.5552422491       -1.6632644279       14.7760339791
  C        -2.3842625743       -1.7420527469       13.3740604365
  C        -1.3436693712       -1.2045188857       12.6957150870
  H        -1.4343971951       -1.2494840498       11.6269050078
  H        -3.1941161216       -2.1917226059       12.8123272120
  H        -3.5022070856       -2.1282815677       15.1485153828
  H        -1.5161780337       -1.1705116658       16.5881138890
  C         0.8354737353       -0.2833934935       11.2915799521
  C         1.6628303325       -1.4088709503       10.8944826439
  C         1.6272709964       -1.8130469943        9.5237586878
  C         0.8484682484       -1.0684421362        8.6761764803
  C         0.1562384301        0.0550773543        9.0203552384
  C         0.2117479304        0.4631284296       10.3260126294
  H        -0.2842138411        1.3050575487       10.7219314399
  H        -0.4629656166        0.6050174010        8.3346506642
  H         0.7150700709       -1.5281946887        7.6946065690
  H         2.1982100526       -2.6047597749        9.0599680104
  H         2.2658219285       -1.9870883352       11.6277291132
  C         9.2727002038        0.9703066594       14.9801549792
  C        10.3191618984        1.7378487263       15.5826541921
  C        11.3241151766        2.3177917414       14.7961924363
  C        12.3880062568        2.9400393138       15.4729038315
  C        13.5129405822        3.4427599050       14.7273119080
  C        10.2682162825        2.0177405294       17.0159686228
  C         9.3709882304        3.0246664396       17.5240968797
  C         9.4450405615        3.4569518434       18.8214859505
  C        10.4173314675        2.9326819526       19.6462515936
  C        11.2067220722        1.8514211895       19.2167493616
  C        11.0818275859        1.3102065976       17.9379695961
  H        12.4638816324        3.0682226689       16.5646038264
  H        14.3457656791        3.8572133038       15.3015092472
  H         8.6386171877        3.5555843070       16.8580354932
  H         8.8238682416        4.2491433725       19.1084868026
  H        10.5917878254        3.4924883729       20.6011510362
  H        11.9559168792        1.4125648322       19.9049579767
  H        11.6197517597        0.4572772036       17.6299393318
  C         9.2630784877        0.9930333253       13.4953783128
  C         8.1774205525        0.3768940761       12.8074115521
  C         7.1133173017       -0.2426267550       13.5660529223
  C         7.1637086246       -0.2571520341       14.9643020872
  C         8.3001084658        0.2240710970       15.6637253546
  C        11.3557609164        2.2281018563       13.3255260558
  C        10.3011185898        1.6196511035       12.6587321939
  C        10.1446674589        2.0141289024       11.2214873032
  C         9.3842449077        3.1210321205       10.7048013033
  C         9.5781151733        3.4801631806        9.3237450711
  C        10.4171385370        2.7762776202        8.5280461147
  C        11.1812723734        1.6999688985        9.0332838581
  C        11.0786286910        1.3743752757       10.3550688851
  H        11.6501740266        0.5529971895       10.7720388368
  H        11.9635603431        1.2512416461        8.4107392354
  H        10.4126734886        3.0422770128        7.4345969257
  H         8.9419553476        4.2852720616        8.8527856325
  H         8.7801781174        3.7090042323       11.4106065553
  C        12.3786666394        2.9097308688       12.6973233610
  C        13.4072422032        3.5169274278       13.3143119654
  H        14.2332487378        4.0238397795       12.7236304730
  H        12.3269305289        3.1006638684       11.6207097510
  C         8.2971046472       -0.0159550519       17.1326659970
  C         8.9679316021       -1.1366992353       17.6958095856
  C         8.8288728820       -1.4642340713       19.0813860962
  C         7.9109820124       -0.8004519140       19.9008045124
  C         7.2373023306        0.3005571076       19.3544915456
  C         7.3675721109        0.6425675708       17.9971181719
  H         6.6018103414        1.2843998103       17.6661138913
  H         6.4836726837        0.8519350366       19.8996875507
  H         7.5169174633       -1.1905092348       20.8236393435
  H         9.3357406767       -2.3386905100       19.4499010903
  H         9.7681569694       -1.7064217401       17.1420342819
  C         6.0296887649       -0.8433443310       15.6504280505
  C         5.0180852045       -1.5638700212       15.0011877117
  C         5.1247201242       -1.7707887728       13.5996885297
  C         6.1740580308       -1.0924602685       12.9087320785
  H         6.1937704015       -1.1557663539       11.8442137113
  H         4.2815788831       -2.2179725807       13.1093016976
  H         4.2112216916       -2.0952948611       15.5586975315
  H         6.0422488766       -0.8294772667       16.7473950463
  C         8.2357387621       -0.0290947803       11.3269150098
  C         9.0316255894       -1.1469389553       10.9603954821
  C         8.8829168255       -1.6258723851        9.6473723976
  C         8.1029811708       -1.0671358797        8.6617103888
  C         7.2898527352       -0.0002504921        9.0329750661
  C         7.3585281689        0.4750007814       10.3884660663
  H         6.5831827794        1.2570677432       10.5632558004
  H         6.6356618097        0.5193007972        8.3120721364
  H         8.1683207152       -1.3609072191        7.6087892587
  H         9.5346067006       -2.4458460706        9.3479884960
  H         9.7797395118       -1.5734543346       11.5812970673
