140

  C        10.8604393826        6.8728585094        0.5175325997
  C         9.9575346213        7.6923353148        1.2727666635
  C         8.9751643844        8.4582265883        0.6096794985
  C         7.9713782981        9.1623019626        1.2835726118
  C         6.8641116836        9.7415190347        0.6104716066
  C         9.9813509400        8.0400894050        2.7376488088
  C        10.8306896475        9.0291790509        3.2905128577
  C        10.7368367219        9.4210701088        4.6776997855
  C         9.7234691522        8.8715943546        5.4705000203
  C         8.9376137944        7.8306389861        4.9681926564
  C         9.0084369715        7.4734177237        3.6159111050
  H         7.9850298670        9.2785832315        2.3299368518
  H         6.1073570060       10.3716854191        1.0655805993
  H        11.7035506248        9.4579929282        2.7303949805
  H        11.3548888000       10.1790517208        5.0549249506
  H         9.5876212629        9.1350900279        6.5147735010
  H         8.0769273414        7.3361045975        5.5528323332
  H         8.4041302301        6.7173577032        3.1293906289
  C        10.8845195084        6.9896482324       -0.9611357163
  C        12.0084145177        6.3126101025       -1.6955494986
  C        13.0189225324        5.6728522114       -0.9140692141
  C        13.0177781191        5.6084011120        0.5067891270
  C        11.8515041026        6.0956356464        1.2319552569
  C         8.8891631967        8.4041653084       -0.8017175783
  C         9.9357160711        7.8119955096       -1.5644515354
  C        10.0816886218        8.3096565883       -2.9675889231
  C        11.2761497103        9.0113014324       -3.3109460214
  C        11.6398939118        9.4495248041       -4.6097312145
  C        10.7806563487        9.2671281776       -5.6661647913
  C         9.5611784851        8.6481808897       -5.4200783793
  C         9.2723562874        8.0667286925       -4.1224781509
  H         8.3416986244        7.4293973440       -4.0147755922
  H         8.8433495163        8.4932104258       -6.2572079870
  H        11.1003531628        9.7055581117       -6.5795832761
  H        12.5720838939        9.9763464698       -4.7501099120
  H        12.1064772404        9.0831080057       -2.5730655258
  C         7.7765168675        9.0511293140       -1.4645066217
  C         6.7209162354        9.5698688816       -0.7612345694
  H         5.8314780147        9.9460985689       -1.2081534510
  H         7.7632683146        8.9978730356       -2.5051356359
  C        11.7943720729        5.7316521928        2.6999237196
  C        10.9522699470        4.7236724043        3.2996068760
  C        11.0923474101        4.4510214048        4.6638952321
  C        11.9726785664        5.1638388685        5.5301478459
  C        12.7299870877        6.1158806994        4.9303308476
  C        12.6551401841        6.4311783538        3.5746005750
  H        13.1576178675        7.2960691644        3.1823257106
  H        13.4012893668        6.6944537627        5.5317888377
  H        11.9251208696        5.0197564539        6.6267654119
  H        10.4373276870        3.6465697059        5.0059704646
  H        10.2350662253        4.1449522759        2.6777199301
  C        14.0900029115        4.9194604846        1.2016059439
  C        15.2062356653        4.4895166041        0.5498356224
  C        15.2056978669        4.5278986946       -0.9014687270
  C        14.1271610887        5.0511108779       -1.5483536843
  H        14.2308113029        5.0289583741       -2.6868387367
  H        15.9677786592        4.0829081011       -1.5053704517
  H        15.8781766175        3.7790152701        1.1336554755
  H        14.0840239506        4.8562240668        2.3238045868
  C        11.9838947336        5.9090367593       -3.1406772314
  C        11.1007712691        4.8386316003       -3.6344085203
  C        11.2031388233        4.4084392362       -4.9713600898
  C        12.1584006396        4.8874310815       -5.8733691023
  C        13.1554580688        5.7802114372       -5.3485816978
  C        12.9252469060        6.3914346366       -4.1192015917
  H        13.6789502448        7.1066237622       -3.7468026226
  H        13.9861522063        6.0172450091       -5.9272085273
  H        12.3249422179        4.4793615697       -6.8338400485
  H        10.6113105966        3.4985757721       -5.2717681704
  H        10.3716654200        4.3945505368       -3.0388724336
  C        18.2708871462        7.1153952152        0.6789036972
  C        17.1746856210        7.8149961312        1.3994768353
  C        16.0794912630        8.2458367766        0.6564719219
  C        14.9084578513        8.8276835441        1.2608290879
  C        13.8449879557        9.2565233429        0.5742461925
  C        17.2628375168        8.1748889606        2.8973098252
  C        18.0921140938        9.1293362868        3.4291729685
  C        18.0290457529        9.4045527086        4.8022723210
  C        17.1215334346        8.8713252518        5.7057965467
  C        16.2562608064        7.8837110025        5.1902596619
  C        16.3921301111        7.4759567840        3.8139806367
  H        14.8044922812        8.7963565817        2.3219048328
  H        12.8204359053        9.5569635486        0.9325645430
  H        18.8806532940        9.6103997222        2.8296896023
  H        18.6507682798       10.2457548811        5.1421865625
  H        17.0856941148        9.1077820286        6.7659717606
  H        15.5274695306        7.4401672174        5.8058640491
  H        15.8460969503        6.6014213685        3.4412021142
  C        18.2944751378        7.0623770391       -0.7854174687
  C        19.2917982922        6.3579355803       -1.4856152769
  C        20.4203032972        5.9050475523       -0.7924614833
  C        20.3836598968        5.8458903060        0.6832948041
  C        19.2264520044        6.3241783977        1.3260100060
  C        16.1407147212        8.2832880101       -0.8000845670
  C        17.2995892389        7.7763799823       -1.4545091652
  C        17.3262015189        8.1419117906       -2.9065794377
  C        18.0801161009        9.2286064577       -3.3470596906
  C        18.0184057723        9.7675978454       -4.6754658788
  C        17.2660703967        9.0838164131       -5.6247776128
  C        16.5383822237        7.9620403278       -5.2476760098
  C        16.5976995730        7.4760184322       -3.8970668942
  H        16.0409983096        6.5933378536       -3.6176535246
  H        15.9212218427        7.4049189557       -5.9504747178
  H        17.1782246603        9.5105304553       -6.6397051199
  H        18.5397409914       10.6383042672       -4.9208447673
  H        18.6655514124        9.7371165741       -2.5538572033
  C        15.1903517278        9.1139085120       -1.4398645689
  C        14.0288522682        9.4965942193       -0.8340346611
  H        13.3175284271       10.1747961150       -1.3423045756
  H        15.2030811194        9.2445514054       -2.5013383629
  C        19.0669360410        5.9277462261        2.8126807606
  C        18.1139307410        5.0346089286        3.2050811186
  C        17.9558660137        4.7469889686        4.5994462061
  C        18.8038333481        5.3196460431        5.5479150059
  C        19.8360389244        6.1501745240        5.1184355636
  C        19.8955942817        6.4997705655        3.7779465822
  H        20.6264769613        7.1769140308        3.3929719569
  H        20.5933062178        6.4586108543        5.8542519360
  H        18.6394278938        4.9948670678        6.5643922322
  H        17.1607513867        4.0592636112        4.9181206198
  H        17.4384697988        4.5166161921        2.4454496060
  C        21.3454322175        5.0767094356        1.3848246325
  C        22.3799883174        4.4632960103        0.6901867793
  C        22.4061409548        4.4221194632       -0.7158547182
  C        21.5018792231        5.1994674401       -1.4534494519
  H        21.4985652963        5.2900303630       -2.5334137920
  H        23.1043676967        3.7073024272       -1.1523700051
  H        23.1024368171        3.8134109855        1.1634306060
  H        21.3505327152        5.0626471919        2.4702464758
  C        19.3120749262        6.0313874161       -2.9554202427
  C        18.7635726400        4.8429320581       -3.4986470923
  C        18.9160401939        4.4239082127       -4.8682997783
  C        19.7670854643        5.1925152390       -5.6811549468
  C        20.3216061459        6.3804880754       -5.1251959121
  C        20.0924270517        6.7652410036       -3.8348970461
  H        20.4316497600        7.6915077727       -3.4196695949
  H        20.8001589012        7.1601415236       -5.7310793710
  H        19.9608100482        5.0901535772       -6.7832403896
  H        18.4156890751        3.5263713351       -5.2250584099
  H        18.2300982077        4.2140004690       -2.8030083389
