140

  C         9.0959633149        7.7767102541        1.2092218647
  C         8.1383926860        8.5964701902        1.8697643354
  C         7.0577490031        9.1347951946        1.1917566361
  C         5.9531505058        9.8379779761        1.8187219908
  C         4.8961246771       10.4200260276        1.0348403547
  C         8.3378197129        9.0596309523        3.3309262725
  C         9.1505007926       10.1704616030        3.5309238194
  C         9.4505893995       10.7116081178        4.8287043875
  C         8.7697378412       10.1015312733        5.8806433148
  C         7.8052889726        9.0941494216        5.6707963292
  C         7.5991994568        8.6028892711        4.4233192343
  H         5.8251577442        9.9538512396        2.9091193857
  H         4.0881653819       10.8545473510        1.6148375134
  H         9.5625302030       10.7163128135        2.6591184449
  H        10.1415552132       11.5527019267        4.8937028710
  H         8.9052304484       10.3580601121        6.9161015480
  H         7.0927099256        8.7662730174        6.4725260841
  H         6.7459433032        7.9128756401        4.3464862468
  C         9.1608199143        7.7723296523       -0.2364698452
  C        10.2499561279        7.0286584102       -0.8802364091
  C        11.3278192728        6.4991527667       -0.1505610310
  C        11.2646264693        6.5257628188        1.2898243674
  C        10.1525931867        7.1064424106        1.9672207243
  C         7.1246581856        9.0795825475       -0.3103693989
  C         8.2499759141        8.4679193223       -1.0029970963
  C         8.4561027557        8.9793583321       -2.3851298893
  C         9.5144606997        9.8197757579       -2.6263812709
  C         9.7948848153       10.4592467173       -3.8906449687
  C         8.7730060810       10.3026462908       -4.8915091717
  C         7.7317686484        9.3288026714       -4.6849599913
  C         7.5923099902        8.6393267673       -3.5222608246
  H         6.8358681927        7.8470825089       -3.4363210234
  H         7.1221180853        9.1270358871       -5.5645547216
  H         8.8687951749       10.8471170932       -5.8009493868
  H        10.6325519958       11.1078797490       -3.9507015231
  H        10.2285286669        9.8945413597       -1.8266653540
  C         6.0578939962        9.6894878048       -0.9834882654
  C         4.9641617640       10.3276697746       -0.3842223006
  H         4.1812342244       10.7637062039       -1.0045024644
  H         6.0641062955        9.5946016296       -2.0591134461
  C        10.1474400540        6.8673516054        3.4769745304
  C         9.2971070602        5.9524957587        4.0439968040
  C         9.3320568199        5.7570485436        5.4050515542
  C        10.1951686848        6.4172343744        6.2660791243
  C        10.9706681549        7.4624993009        5.6889568391
  C        10.9825513261        7.6961972480        4.2852349866
  H        11.6268960311        8.4885115057        3.8454142049
  H        11.4404272516        8.1637041500        6.3483355004
  H        10.4353511381        6.1132131950        7.2656016782
  H         8.5628769978        5.1470948538        5.8456621850
  H         8.7003047498        5.2546358973        3.4606250900
  C        12.3257876090        6.0228342480        2.0789235471
  C        13.3694174034        5.3799533254        1.5409498756
  C        13.4228262809        5.2346974568        0.0930796140
  C        12.4670278351        5.7463880136       -0.6788972514
  H        12.5179886475        5.5265609557       -1.7773154783
  H        14.2840855861        4.8212941091       -0.3741514980
  H        14.1187307056        4.8750890798        2.1257717626
  H        12.2188045802        5.9860740699        3.2002211869
  C        10.2612416647        6.6075525529       -2.2876699899
  C         9.0996211486        5.9229684729       -2.8045011058
  C         8.8762178128        5.6025184304       -4.1708438895
  C         9.9758457171        6.0261245767       -4.9932339900
  C        11.0523454549        6.8344712544       -4.5693847225
  C        11.1876097262        7.1847299946       -3.2282206849
  H        12.0195176809        7.8416432605       -2.9498342223
  H        11.7221258604        7.1732588385       -5.3018206892
  H         9.9800681174        5.8439631798       -6.0358712980
  H         8.0902820289        4.9889557107       -4.5750527202
  H         8.3840283716        5.4894443591       -2.1079651219
  C        16.6213117811        7.7927712274        1.5123331107
  C        15.6154325554        8.4656013256        2.2392988111
  C        14.5459361635        9.0760991862        1.5474321820
  C        13.5331131165        9.7787906382        2.2604885740
  C        12.4173133664       10.3616439162        1.6564872259
  C        15.7077311894        8.7395142100        3.7058288057
  C        16.5327971244        9.8644635616        4.0710258539
  C        16.4841668589       10.3926912608        5.3382145497
  C        15.6546190921        9.8972638509        6.3534345738
  C        14.8552194117        8.8205304078        6.0568976609
  C        14.8724775921        8.2413813114        4.7297012539
  H        13.6178810137        9.9224670308        3.3667503906
  H        11.6321733634       10.8486135141        2.2881102832
  H        17.1896533063       10.3223242897        3.3103000928
  H        17.0846799297       11.2593171470        5.4134624043
  H        15.7725229325       10.2375138870        7.3824181891
  H        14.1937768699        8.3428490687        6.7882668392
  H        14.1850809818        7.4052004048        4.4492447682
  C        16.5791692802        7.8104502742        0.0124156828
  C        17.6460674744        7.1145413245       -0.7705258796
  C        18.7567965540        6.5500148915       -0.0707379770
  C        18.7828111184        6.5443628272        1.3541199672
  C        17.7557743353        7.0734617478        2.1343009427
  C        14.4501581226        9.1002551195        0.0933850398
  C        15.4978880952        8.5232759899       -0.6578799216
  C        15.6071041299        8.8474224214       -2.0789193622
  C        16.3167941640        9.9774657899       -2.5822475166
  C        16.4158630798       10.2037992255       -3.9765823791
  C        15.6016098183        9.5851278457       -4.9063706667
  C        14.6633281214        8.5922916326       -4.4421304058
  C        14.7809046044        8.2225253286       -3.0928202354
  H        14.1738189507        7.3510371469       -2.7291751778
  H        13.9455910272        8.0865500005       -5.0621946906
  H        15.6651156802        9.8740404842       -5.9831827911
  H        16.9203791547       11.1300795709       -4.3328075221
  H        16.8734306533       10.6242364889       -1.9240304321
  C        13.3121569417        9.8003166953       -0.5225321209
  C        12.2897735232       10.3547194564        0.2355660189
  H        11.4785777611       10.9270455453       -0.2214521653
  H        13.2692623538        9.7174261445       -1.5783410011
  C        17.9391204552        6.8130465916        3.5936537121
  C        17.1020480957        5.8124837753        4.0872375758
  C        16.9719637683        5.5492634655        5.4498156714
  C        17.7643435958        6.2644736178        6.3865271978
  C        18.7432390400        7.1235276636        5.9152428397
  C        18.8490489434        7.4484378063        4.5379766682
  H        19.6549476345        8.0846268095        4.1465045453
  H        19.5317455167        7.5692630523        6.5297348844
  H        17.7710988074        6.0054048781        7.4406143915
  H        16.2759448024        4.7904640579        5.7988400163
  H        16.5279423585        5.2502567785        3.3353199934
  C        19.9928278585        5.8957133094        1.9639702594
  C        20.9753083455        5.4225783664        1.2177461155
  C        20.9567041782        5.4617827885       -0.2200284203
  C        19.8489407179        5.9900989080       -0.8298813423
  H        19.7450800356        6.1843043818       -1.8854139473
  H        21.7197484629        5.0151699271       -0.8008053769
  H        21.8057628098        4.7888274107        1.6716029924
  H        20.1094687416        5.6750332519        3.0129606211
  C        17.4801579203        6.7232977173       -2.2374688706
  C        16.6204664327        5.6043616821       -2.4982873277
  C        16.5934441623        5.0921225479       -3.7899315349
  C        17.4064753129        5.6634582726       -4.8072772512
  C        18.2193973518        6.7165130916       -4.4748419482
  C        18.2563016690        7.2536790940       -3.2234593202
  H        19.0220348758        8.0163979082       -3.0569171344
  H        18.7217227512        7.1930712192       -5.2910679631
  H        17.4508854396        5.2001129863       -5.7945704794
  H        15.8893184277        4.2744301007       -4.0728090635
  H        15.9486846404        5.2930882783       -1.7270746808
