140

  C         3.5853955380        0.1129454531       14.5726640758
  C         4.6925125614        0.8202067027       15.1879274321
  C         5.7288916920        1.3725248058       14.4496647655
  C         6.7363006235        2.1294889047       15.0653660552
  C         7.7461724741        2.8197175645       14.3469503404
  C         4.7460328940        1.1456592118       16.6535442554
  C         4.0683627522        2.2034272805       17.2736444916
  C         4.1911252047        2.4389592258       18.6273656982
  C         4.9111872015        1.6042191797       19.4497153884
  C         5.7044686569        0.6219234264       18.9282269607
  C         5.6218462342        0.3422308745       17.5123854139
  H         6.6363498865        2.2521125876       16.1415113790
  H         8.4124811883        3.5255853110       14.7977247561
  H         3.5290910646        2.8137036635       16.5483968232
  H         3.6426500353        3.2735756228       19.0509870264
  H         5.0864116933        1.7864256883       20.5031534897
  H         6.3513243024       -0.0011417112       19.5438450163
  H         6.1227701718       -0.5551576816       17.0116538019
  C         3.4504559823        0.1834916687       13.0930012318
  C         2.4212142488       -0.6329850621       12.4624609666
  C         1.3559096190       -1.2151672698       13.2325015533
  C         1.4049214568       -1.1486481865       14.6607293515
  C         2.5137417271       -0.5523866724       15.2668654449
  C         5.6526222741        1.3375158751       12.9772807605
  C         4.4864512174        0.8050793898       12.3181830260
  C         4.3710859822        1.1296013811       10.8792813772
  C         3.6016929441        2.1719273566       10.4049011791
  C         3.6085135845        2.6750545440        9.0570212472
  C         4.4578958991        2.1163112158        8.0614016949
  C         5.2392130999        1.0188874790        8.5255942607
  C         5.1496656633        0.5255310507        9.8709303532
  H         5.7660607837       -0.3606208503       10.0450167602
  H         5.8970891254        0.4334133850        7.9092179127
  H         4.5547180611        2.6444521118        7.1009764788
  H         2.8535908801        3.4400082123        9.0156843361
  H         3.0767473193        2.7068363705       11.2214381055
  C         6.8085458292        1.8605856371       12.3102930641
  C         7.8293855736        2.5646307508       12.9318452105
  H         8.6575545481        2.9457949723       12.3509292346
  H         6.8853284948        1.7035660619       11.2380576775
  C         2.6389706418       -0.7863641614       16.7999441624
  C         3.3517001827       -1.8914429296       17.2720410264
  C         3.2190775860       -2.2813589580       18.6126705869
  C         2.4315523050       -1.5202843650       19.5862500838
  C         1.7954926460       -0.4072925350       19.0650144656
  C         1.8077078141       -0.0635770994       17.6827460407
  H         1.3485343880        0.8307159952       17.3311818327
  H         1.2007842418        0.3012153110       19.6012343586
  H         2.3878269799       -1.8658657753       20.6495375675
  H         3.7752844791       -3.1682796048       18.8835389506
  H         3.8689622030       -2.5182673135       16.5423780648
  C         0.4775515676       -1.9988439328       15.3593859671
  C        -0.3719617039       -2.8127322574       14.6793340101
  C        -0.5058737378       -2.7063899728       13.2809434528
  C         0.3862451473       -1.9764797458       12.5404472647
  H         0.3084989765       -2.0503128535       11.4510483157
  H        -1.1553300762       -3.4235738069       12.7922631099
  H        -0.9182571604       -3.5564907954       15.2356038727
  H         0.5326098576       -2.0275977924       16.4000665738
  C         2.4865318344       -0.9884083029       11.0187644174
  C         3.2619029243       -2.0360922864       10.5227797937
  C         3.2897017975       -2.4233149724        9.1417063256
  C         2.4314609801       -1.8597076408        8.2041840013
  C         1.6190895873       -0.8121310998        8.6807852719
  C         1.6947934535       -0.3521604141       10.0223800203
  H         1.0631641920        0.5756780942       10.1631477315
  H         1.0701821763       -0.2599502163        7.9892363786
  H         2.6035972636       -1.9669274605        7.1344231083
  H         4.0500914744       -3.2112883717        8.9483428051
  H         4.0013090139       -2.5195049684       11.1891563812
  C        10.6812647102        0.1438027262       14.3363893426
  C        11.7773294109        0.8347700281       14.8979018915
  C        12.8895202694        1.2513875766       14.1697608269
  C        14.0203116232        1.9065590774       14.8006159828
  C        14.9898751034        2.5482703877       14.0623463780
  C        11.5812827941        1.2140245098       16.3306667828
  C        10.7084435591        2.2742469762       16.6205976850
  C        10.4377932628        2.7120708385       17.8865453775
  C        11.1520412087        2.0429747920       18.9275212088
  C        12.1860825334        1.1780042620       18.6461729143
  C        12.3329173193        0.7277942104       17.3254175183
  H        14.0954770935        1.9001436034       15.9199576526
  H        15.8813439217        3.0637767686       14.5256424319
  H        10.1749778474        2.6901588017       15.7597080014
  H         9.7583414360        3.4933168039       18.1594547811
  H        10.8894681205        2.1969193335       20.0060204189
  H        12.7267497511        0.7398970197       19.4590179042
  H        13.1334030244        0.0531441944       17.0321331673
  C        10.6908514527       -0.0651127359       12.8903715105
  C         9.6315535339       -0.8767496034       12.2947657115
  C         8.5107317506       -1.2676479950       13.0396822875
  C         8.6087469142       -1.1568254097       14.4720546095
  C         9.6759681090       -0.6173369335       15.0940086711
  C        12.7825635524        1.3070746967       12.7584751922
  C        11.6826137478        0.5803809798       12.1092096491
  C        11.5809245278        1.0057390965       10.6647705321
  C        10.7280595613        2.0372907256       10.3429856769
  C        10.7707741966        2.4930188718        9.0197505306
  C        11.5259144774        1.8368148713        8.0455711217
  C        12.4918317710        0.8412382796        8.4137552389
  C        12.4512978861        0.3910392081        9.7286007973
  H        13.1458863517       -0.3145611704       10.1418788468
  H        13.0799366957        0.2430882517        7.6784505893
  H        11.4612508090        2.1915214993        7.0490456329
  H        10.0116685449        3.2382467178        8.6587059629
  H        10.0961492422        2.5036783723       11.0129828008
  C        13.7747844966        2.0822148145       12.0161166952
  C        14.8177334150        2.6920016144       12.6332767848
  H        15.4494631543        3.2948322577       11.9818879827
  H        13.6675152884        2.2672776154       10.9490558565
  C         9.7910333392       -0.9226904205       16.5343149467
  C        10.6653786338       -1.9529113718       16.8783549418
  C        10.7943473543       -2.3875079741       18.2137838538
  C        10.0808108972       -1.6381696293       19.1126044672
  C         9.3107185700       -0.5185745247       18.7516501540
  C         9.0177739133       -0.2084255624       17.4341239998
  H         8.4153255929        0.5969128079       16.9932484019
  H         8.7980912945       -0.1060237052       19.5876796015
  H        10.1530428031       -1.8224627855       20.2091998517
  H        11.4588750539       -3.2164382089       18.4720827700
  H        11.2381708861       -2.3782839452       16.0682656654
  C         7.5592628649       -1.8094563558       15.3086119727
  C         6.5466247419       -2.5038155767       14.6828035852
  C         6.4804668013       -2.6610380108       13.2535521826
  C         7.4252245700       -2.0385907444       12.4977797085
  H         7.2462316565       -2.0845573970       11.4566885382
  H         5.6625973726       -3.1986128590       12.7833449719
  H         5.7807246753       -3.0474086243       15.2553044299
  H         7.6530011092       -1.7120078483       16.3924483255
  C         9.6422491877       -1.2507210639       10.8977421348
  C        10.7111281361       -1.9692387507       10.2820673944
  C        10.6789148360       -2.1885224543        8.8941379066
  C         9.6607901506       -1.7954591119        8.0721357537
  C         8.6557918093       -0.9674495172        8.6548575225
  C         8.6130542536       -0.7970939966       10.0419939799
  H         7.7859778110       -0.2049667301       10.3735087882
  H         7.8910207408       -0.4413534690        8.0173666093
  H         9.7120704147       -2.0793817973        7.0277160964
  H        11.4340433055       -2.8975722352        8.5499405135
  H        11.6115896696       -2.3521506890       10.7447341036
