140

  C        11.2258739282        7.1353269007        1.8332388430
  C        10.2567376892        7.8679780517        2.6099400446
  C         9.1868054518        8.4161938874        1.8656707942
  C         8.0744428173        9.0471441281        2.5991029693
  C         7.1222287037        9.6683257523        1.8554588730
  C        10.2866005563        8.1732470762        4.1402319664
  C        11.1070538463        9.2403974494        4.6008014213
  C        11.2314560860        9.5689891917        5.9784370383
  C        10.4010004377        8.9009353931        6.8461928620
  C         9.5014794283        7.9594943675        6.4303798862
  C         9.4456750522        7.4815913767        5.0880859487
  H         8.0048823683        8.6403608436        3.6117302016
  H         6.1990042103       10.1057018979        2.2017154062
  H        11.7757253578        9.7433825733        3.9045207831
  H        11.8781595527       10.3968077542        6.2753321792
  H        10.5234993464        9.1793544798        7.9406668479
  H         8.9269313724        7.4712007928        7.1479555007
  H         8.8787404496        6.6696295477        4.6861984163
  C        11.1940549993        7.0526408651        0.3285502214
  C        12.2306991868        6.2772336864       -0.3727765826
  C        13.3206393029        5.7820689413        0.3506472288
  C        13.4037698377        5.9260379103        1.8324909375
  C        12.3223357655        6.4834704690        2.5285806989
  C         9.2702904548        8.5291520449        0.4298856418
  C        10.2671420245        7.9263191678       -0.3521720113
  C        10.5451742581        8.3798340276       -1.7350740549
  C        11.4601616253        9.4300133341       -2.0144916598
  C        11.5862954571       10.0230525917       -3.2756495293
  C        10.7088214794        9.6310599094       -4.2923799015
  C         9.8615810843        8.5270038422       -4.0739681735
  C         9.7426299486        7.8948923900       -2.8396584572
  H         9.2581155673        6.9459381608       -2.7438601417
  H         9.1564108007        8.2215441337       -4.9129392988
  H        10.7410706047       10.1485078701       -5.2151654751
  H        12.1171996211       10.9287125481       -3.3819529583
  H        12.0128881133        9.9619775747       -1.2383991612
  C         8.2754280014        9.3305659474       -0.2499518761
  C         7.2353096129        9.8576591579        0.4591823161
  H         6.4830419353       10.4734586074        0.0242296439
  H         8.4405990215        9.4990129165       -1.2984907691
  C        12.1646554217        6.1432609659        4.0134849348
  C        11.1942143992        5.1727865215        4.4481241577
  C        11.2879986488        4.7151381166        5.7854192962
  C        12.2107646616        5.2394026315        6.7095775249
  C        13.1513681897        6.2038494839        6.2867221221
  C        13.0980101596        6.6533925808        4.9169208864
  H        13.9001621560        7.2789870983        4.5035156402
  H        13.9553342364        6.4759514736        6.9739266834
  H        12.3027442699        4.8089680796        7.7508436497
  H        10.6415361361        3.9191362843        6.0854280519
  H        10.4214481500        4.7385417920        3.8265394609
  C        14.5631956238        5.3642143535        2.4229807010
  C        15.5912877813        4.7315530338        1.7184932898
  C        15.4310310278        4.4705519284        0.3242300761
  C        14.3552819486        5.0064066736       -0.2976144619
  H        14.2828799664        4.9641692789       -1.4119708673
  H        16.1634293425        3.8514757949       -0.2215408446
  H        16.4970210565        4.4342322516        2.3046113746
  H        14.7137998261        5.3636880708        3.4748490862
  C        12.1236615161        6.0135906700       -1.8452122166
  C        11.4624338486        4.8314784862       -2.2725475502
  C        11.3351900180        4.5612854202       -3.6137276250
  C        11.9573213436        5.3674072411       -4.5374075763
  C        12.7065020617        6.4832583322       -4.1659918925
  C        12.8261115453        6.8779063449       -2.8037209848
  H        13.3712685446        7.6574229605       -2.4254657506
  H        13.1765105332        7.0459361704       -4.9569141739
  H        11.8348419095        5.0204241008       -5.5331617705
  H        10.8285621485        3.6349800869       -3.9126406146
  H        10.9510218729        4.2545577429       -1.5325875250
  C        18.5173895272        6.9747471752        2.3130253137
  C        17.5026712729        7.7806675683        2.9274870245
  C        16.4495644950        8.3180503434        2.1898288966
  C        15.5033558834        9.1889779047        2.7702217602
  C        14.4270302742        9.6276372969        2.1170889801
  C        17.5665161219        8.1821307771        4.3470370124
  C        18.3074803362        9.2808300567        4.7587857382
  C        18.2592480310        9.7078036131        6.0532122282
  C        17.5245815129        9.0844516845        7.0445856521
  C        16.7744302533        7.9708804271        6.6163002461
  C        16.8194890416        7.4780169823        5.3197732513
  H        15.4859821085        9.2644078723        3.8367986206
  H        13.6838186025       10.3523089117        2.5644758912
  H        18.9194066553        9.7165685216        4.0089492843
  H        18.8936771679       10.5080272939        6.4194099799
  H        17.4528469707        9.4377420558        8.0917313240
  H        16.2623541898        7.3914674976        7.3795739878
  H        16.3549965882        6.5263866032        4.9076415690
  C        18.5505402234        6.9161845834        0.7987628653
  C        19.6621387682        6.3329014597        0.0736145209
  C        20.7913733614        5.8386040529        0.8193842818
  C        20.7348416447        5.8876008922        2.3351192710
  C        19.6412343192        6.3599456916        2.9920053420
  C        16.3843552380        8.1222348206        0.7605442386
  C        17.5557581523        7.5566268800        0.0650023061
  C        17.5840687963        7.9972209633       -1.3571381061
  C        18.3689911013        9.0432959840       -1.7726451937
  C        18.2612505837        9.5347849979       -3.1041237945
  C        17.3162050460        8.9276059503       -3.9564977709
  C        16.5164782658        7.8244691520       -3.5335202210
  C        16.6832762842        7.3014077665       -2.2339359957
  H        16.1158491231        6.3858682454       -1.8922426001
  H        15.8024637152        7.4623585571       -4.2440980017
  H        17.2705007262        9.2834472864       -4.9821558688
  H        18.9532554321       10.2080338737       -3.4940978643
  H        19.1334481416        9.4921814568       -1.0794549136
  C        15.2624094633        8.6690792383        0.0417108653
  C        14.2842521974        9.2833251105        0.7190861271
  H        13.4194156293        9.7285347876        0.2575727232
  H        15.4538080783        8.5473834344       -1.0455029421
  C        19.4732380763        6.1163174833        4.4278032666
  C        18.7113477770        4.9686476624        4.9110428552
  C        18.7798148434        4.6133770593        6.2634639079
  C        19.5608705008        5.4043975690        7.1445378532
  C        20.3406418330        6.4196687330        6.7024612545
  C        20.1792980174        6.8236264862        5.3756565836
  H        20.8238896077        7.6558274159        5.0221793066
  H        21.0873942296        6.9926846615        7.2488443378
  H        19.6130805662        5.1016794254        8.1707461704
  H        18.1938132053        3.7952926412        6.7437292261
  H        18.0939831208        4.4246422219        4.1856864759
  C        21.8959336445        5.3581374572        3.0417448706
  C        23.0272577785        4.9665573516        2.4228865208
  C        23.0834793457        4.9058402360        1.0063733181
  C        22.0287546515        5.2944768526        0.2495564430
  H        21.9706129655        5.2786209173       -0.8444529624
  H        23.9471206901        4.3887656312        0.5014100916
  H        23.7855769085        4.4315574658        2.9333864416
  H        21.8148159075        5.3888380068        4.1223695171
  C        19.5097239355        6.0461793076       -1.3973195673
  C        18.4394286636        5.2328423266       -1.8436128771
  C        18.3801284659        4.7824028909       -3.1327366058
  C        19.2783071114        5.2272689057       -4.0854831167
  C        20.3074274047        6.1745316058       -3.6986133177
  C        20.4161249818        6.6070553599       -2.3374386586
  H        21.1845221013        7.2766981171       -2.1279710053
  H        20.9084059021        6.5950672905       -4.5357892431
  H        19.1284443055        5.0236385511       -5.1354466199
  H        17.5764248801        4.1703244905       -3.4999514287
  H        17.7197280811        4.8211357834       -1.1671194793
