140

  C         4.5150703141       -0.6998242971       14.0959526868
  C         5.5557720000       -0.0043379301       14.7465343589
  C         6.6455815527        0.5172126991       13.9783605393
  C         7.7769985470        1.0863063018       14.6239727582
  C         8.8008075838        1.6956799128       13.9547065182
  C         5.4509517571        0.4559141791       16.1906249030
  C         4.6395444579        1.5359478660       16.5362703119
  C         4.5520227827        2.0064622795       17.8917520077
  C         5.2921220136        1.3830038416       18.9218403433
  C         6.0822343496        0.2589399529       18.6004576643
  C         6.0725018438       -0.2380006885       17.2449808819
  H         7.8297675583        0.9913716914       15.7068492636
  H         9.5869146914        2.1765649441       14.4770543443
  H         4.0216458762        2.0903135080       15.8164383075
  H         3.9973495209        2.9198133095       18.1862190110
  H         5.3487291200        1.8400345269       19.8605947642
  H         6.5662900815       -0.1986833048       19.3866934276
  H         6.6302866888       -1.1509100482       17.0403485941
  C         4.3805401940       -0.7070623726       12.6278506539
  C         3.4046940383       -1.4854017158       12.0189087385
  C         2.3104683560       -2.0632983353       12.7167649290
  C         2.4303060944       -2.0985410075       14.1768016683
  C         3.5341748197       -1.5164013230       14.7612174357
  C         6.5226936175        0.6675786620       12.5661332442
  C         5.4271139095        0.0449520866       11.9081474694
  C         5.2188685979        0.4339738012       10.4629053778
  C         4.2781745815        1.3958912059       10.0550677467
  C         4.2265545710        1.9897023808        8.7912506179
  C         5.1522004923        1.4931131520        7.8163130761
  C         5.9617322473        0.4496511259        8.1526824936
  C         6.0708139268       -0.0648456969        9.4610126228
  H         6.7349039138       -0.8697302902        9.7518539261
  H         6.6630237700        0.0919739167        7.3827587294
  H         5.2386218570        1.8409314631        6.7512055877
  H         3.4395323377        2.7417829403        8.5143766664
  H         3.5351926305        1.7774626747       10.8046365493
  C         7.6084717446        1.3279269972       11.8626193786
  C         8.7415390104        1.7184108681       12.5403493584
  H         9.5502424540        2.1556509043       12.0312595358
  H         7.6228815137        1.4819384743       10.7824150842
  C         3.6412495130       -1.8091297935       16.2584060028
  C         4.3570318482       -2.8622854089       16.7099662971
  C         4.1873664707       -3.3012787728       18.0330695387
  C         3.3226210173       -2.6975385743       18.9223590729
  C         2.5766748043       -1.6131881130       18.4766014281
  C         2.7433826660       -1.1263485839       17.1608886922
  H         2.1259634089       -0.3682389701       16.7389993650
  H         1.9041253875       -1.1002778853       19.1987123225
  H         3.1443440001       -3.1089935104       19.9241032294
  H         4.7641021642       -4.2045441260       18.3430134863
  H         4.9054520869       -3.4890638792       16.0610714217
  C         1.4019758351       -2.7577230085       14.9561202431
  C         0.3245872434       -3.2335198049       14.3018548075
  C         0.1820729475       -3.1260644474       12.9056180290
  C         1.1716698726       -2.6367132838       12.0556855663
  H         0.9971660962       -2.6519523298       10.9607958535
  H        -0.7077208104       -3.5289238057       12.4097580060
  H        -0.4740004012       -3.8404241862       14.8189808664
  H         1.5481913011       -3.0284557863       15.9812123964
  C         3.4543100662       -1.7087188131       10.4665742052
  C         4.1745578050       -2.7648936086        9.9777179561
  C         4.2126435213       -3.0878684275        8.5951066547
  C         3.3886790021       -2.4392549563        7.6680682523
  C         2.6326368628       -1.2879160371        8.2044953171
  C         2.7009138668       -0.9617268728        9.5293225690
  H         1.9832169738       -0.1899812129        9.8474626634
  H         1.8549946661       -0.8910643345        7.5679309410
  H         3.2389662471       -2.7698354350        6.6311846278
  H         4.7997948963       -3.9580865984        8.3564463004
  H         4.7711780735       -3.4108860029       10.6477152662
  C        11.7281875222       -0.6962091460       14.0894208818
  C        12.7911271298       -0.0958450025       14.7692936867
  C        13.8459119285        0.4639979526       14.0483423509
  C        14.9433987832        0.9739771337       14.7504908407
  C        15.9727247979        1.6024485030       14.0660114103
  C        12.7756187395        0.2405795973       16.2849985744
  C        11.9366017854        1.3149196340       16.5970842221
  C        11.7314983578        1.6972901852       17.9655148384
  C        12.5278748862        1.0169207072       18.8895566754
  C        13.4381097352       -0.0125700880       18.5450670282
  C        13.4632508791       -0.4527751303       17.2403099287
  H        15.0011780273        0.8925368840       15.8314183515
  H        16.7108762677        2.1820699821       14.5929250207
  H        11.3706941603        1.7492195571       15.7544374143
  H        11.0565172099        2.5345548291       18.2131686400
  H        12.5015835805        1.2065068642       19.9211744522
  H        13.9848037683       -0.5615611812       19.2894569058
  H        13.9845436748       -1.3404814740       16.9382381565
  C        11.6416543840       -0.6329977766       12.5846225984
  C        10.5907169404       -1.2999299055       11.9305656775
  C         9.4932492287       -1.7959605223       12.6494406650
  C         9.5491441180       -1.8487876750       14.0812078502
  C        10.6961391925       -1.3989713997       14.8043790825
  C        13.8154038288        0.5194600650       12.6031239658
  C        12.6590251333        0.1387185984       11.9218719272
  C        12.6688513934        0.4471715242       10.4325741663
  C        12.0091779077        1.6158189947        9.9283549515
  C        12.1517398648        1.9617325355        8.5776077644
  C        12.9381589711        1.2042478094        7.7399182847
  C        13.5250623388        0.0302685707        8.1831156119
  C        13.3944149644       -0.3890090905        9.5158126294
  H        13.9453846220       -1.2022831253       10.0020788686
  H        14.2628063731       -0.5258552469        7.5632296545
  H        13.0037073937        1.5487379097        6.7056735252
  H        11.7430789111        2.9646701639        8.1829796315
  H        11.4493111754        2.1747061081       10.5956694156
  C        14.9664987335        1.0681900681       11.8785505982
  C        15.9706082603        1.5645617082       12.6500342766
  H        16.8170199946        2.0382024758       12.1881120497
  H        14.8949969237        1.2390718102       10.8252973061
  C        10.8664542045       -1.7815869370       16.2560664088
  C        11.8013460075       -2.8071334494       16.6170721095
  C        11.6925399433       -3.3128085544       17.9393990983
  C        10.7884041823       -2.8403459637       18.9036145289
  C         9.9003800318       -1.8467889481       18.5162199046
  C         9.9278918798       -1.3350896680       17.1937682208
  H         9.1812105616       -0.5936478535       16.8398996286
  H         9.0941560007       -1.5652067072       19.1937572968
  H        10.7474090066       -3.2263355881       19.9410655512
  H        12.3546020466       -4.1102090287       18.2497215144
  H        12.5133994309       -3.1906410282       15.9403355818
  C         8.5069666195       -2.5933960843       14.7322190131
  C         7.5237569994       -3.1949482296       14.0524824635
  C         7.4454383482       -3.1000084156       12.6399908540
  C         8.3513783899       -2.3132067894       11.9632492855
  H         8.3742667588       -2.2572797537       10.8470484308
  H         6.6093228448       -3.5043857535       12.0136958811
  H         6.6480672005       -3.7047813701       14.4547295172
  H         8.6390223906       -2.7279405105       15.8412469310
  C        10.7087415446       -1.6039730660       10.4711752043
  C        11.4856594429       -2.6484153931        9.9795979587
  C        11.4686464809       -3.0714349684        8.6779144620
  C        10.6134630056       -2.5707162255        7.7250769440
  C         9.8172465482       -1.5587387385        8.1810605853
  C         9.7839480943       -1.0096049270        9.4975795819
  H         9.2310192218       -0.0842134820        9.7460550764
  H         9.2835301811       -1.0923842172        7.3958383670
  H        10.5427568627       -2.8519737683        6.6920585927
  H        12.1367831816       -3.8991978080        8.3544211680
  H        12.2379647713       -3.0886030179       10.5951918731
