140

  C        10.9569519775        6.8461383514        0.8303250372
  C        10.0979673486        7.6677716354        1.6281236289
  C         9.0052804662        8.3367871379        0.9868982961
  C         8.0936265046        9.1202659165        1.7086510412
  C         7.0390105163        9.6835386521        1.0399482508
  C        10.3171543855        8.0638114781        3.0819222553
  C        11.1233744590        9.1979845296        3.2965682773
  C        11.3357687757        9.6677096007        4.5799678632
  C        10.6021996709        9.1692034322        5.7006396963
  C         9.6087352152        8.0923804509        5.4037190424
  C         9.4933620976        7.6150341561        4.0950588844
  H         8.2338743556        9.5198764008        2.7278379203
  H         6.3699274699       10.3109455535        1.6789053924
  H        11.7114671001        9.6334200752        2.4599703159
  H        12.0602179080       10.4330095727        4.6864554592
  H        10.7721882101        9.4867833983        6.7026046388
  H         8.9380297799        7.7242792672        6.2361153145
  H         8.8384839315        6.7736358948        3.8145506645
  C        10.9230145905        6.8590033590       -0.5636099695
  C        12.0682531769        6.3039651259       -1.2894425412
  C        13.1186526127        5.7009767318       -0.5580062641
  C        13.0517218172        5.4856407219        0.8942702266
  C        11.9343665629        6.0204845453        1.5763172993
  C         8.8882043626        8.2404926454       -0.4805255085
  C         9.9098873960        7.6057708696       -1.2587346173
  C        10.0724226118        7.9394382005       -2.6841111852
  C        10.9088948348        9.1199705911       -2.9768114349
  C        10.9332898387        9.7052263655       -4.2274885394
  C        10.1614353600        9.1776412829       -5.2676027841
  C         9.3453831092        8.0700184953       -4.9909769398
  C         9.2826504679        7.4958522714       -3.7389435336
  H         8.6634011094        6.5824594959       -3.5923789582
  H         8.7036863107        7.7049244271       -5.7566501740
  H        10.1983406284        9.6372804079       -6.2795746016
  H        11.5193652753       10.5779341836       -4.3877072524
  H        11.5285605416        9.5228837712       -2.2037214832
  C         7.7200784980        8.8565371062       -1.2219988677
  C         6.8619815639        9.5319806033       -0.3603983229
  H         5.8997410888        9.8225371742       -0.7200030027
  H         7.6509312700        8.7963314029       -2.2585237986
  C        11.9086399089        5.7154725219        3.0399299133
  C        11.1489713544        4.6727988239        3.5425540204
  C        11.3749079433        4.2739949128        4.8558204046
  C        12.4044240061        4.7687623036        5.6489123408
  C        13.1084123475        5.8771035518        5.1725420155
  C        12.8530431903        6.3118910661        3.8832694891
  H        13.4282003928        7.1344445263        3.4858078922
  H        13.8052503229        6.4664487164        5.7654958821
  H        12.5189148163        4.3344210317        6.6538911096
  H        10.8649854934        3.3974844894        5.2861698254
  H        10.3601782827        4.2180434338        2.9022020872
  C        13.9533916287        4.5536839474        1.5063952621
  C        14.9961702791        3.9825220879        0.7998769084
  C        15.2522662124        4.3925306477       -0.5731154280
  C        14.2648108856        5.1057485651       -1.2177877021
  H        14.4409196342        5.2904146819       -2.3332278216
  H        16.1930684431        4.2168744031       -1.1234434119
  H        15.7450035017        3.3787232545        1.2855206225
  H        13.7773847343        4.4075524964        2.5692652401
  C        12.0661392386        6.0887945717       -2.7882371088
  C        11.2752821291        4.9881627803       -3.3316656726
  C        11.3423062413        4.7615939030       -4.6694714436
  C        12.1359243320        5.5584964920       -5.5537304076
  C        12.8921215049        6.6081234529       -5.0656452788
  C        12.8978993734        6.8301751333       -3.6337173554
  H        13.4118487772        7.6398621406       -3.1000712120
  H        13.4204258257        7.2503526038       -5.7377855359
  H        11.9391984752        5.4607507475       -6.6434708141
  H        10.6503465605        4.0426387932       -5.1094766920
  H        10.6902759926        4.3940466115       -2.6862559585
  C        18.3397497639        6.9098414303        0.6327766513
  C        17.3005704539        7.4267105392        1.3756564892
  C        16.1424191428        7.9505391524        0.6781593518
  C        14.9406739324        8.4961473548        1.3286351850
  C        13.8312139631        8.8875644288        0.6623507165
  C        17.4624518026        7.9793986731        2.8286154267
  C        18.4584286561        8.9968839995        3.0818477929
  C        18.4940836706        9.5685445429        4.3497642536
  C        17.5739636109        9.1760072861        5.3242210175
  C        16.5925979587        8.2450347645        5.0829376624
  C        16.5484966121        7.6637020365        3.7985566279
  H        15.0308489849        8.6568592005        2.3904967892
  H        12.9042336211        9.1937975862        1.2321901639
  H        19.1674720279        9.3859792609        2.3324398829
  H        19.1237774022       10.4583698571        4.4919087265
  H        17.7303312162        9.6625246780        6.2950873234
  H        15.9026509407        7.9605316709        5.8500598280
  H        15.8175769005        6.8690545183        3.6180188011
  C        18.2933777750        6.9103644592       -0.8170837251
  C        19.3057332978        6.1708157372       -1.5159148837
  C        20.5063675515        5.6853422188       -0.9001730188
  C        20.6282949516        5.8181324951        0.5486932735
  C        19.5311272184        6.3618086511        1.2634739197
  C        16.1402563268        7.9645184856       -0.7675983092
  C        17.2599845223        7.5544622534       -1.4871674402
  C        17.4230663607        7.9443101532       -2.8980376780
  C        18.2386527089        9.0969132077       -3.1184205541
  C        18.5316870225        9.5157011430       -4.4355609928
  C        17.7382121225        8.9793774040       -5.5165955694
  C        16.7744025788        7.9709239895       -5.2155229331
  C        16.6427609168        7.4396190004       -3.9268953513
  H        15.9086143211        6.6800798542       -3.7576699921
  H        16.2063599248        7.5246027409       -6.0211277203
  H        17.8664703025        9.3610396371       -6.5250803233
  H        19.2972398855       10.2477410637       -4.5226956964
  H        18.9115668468        9.4865824236       -2.3271718439
  C        14.9775358536        8.5071426827       -1.3866643406
  C        13.8467134214        8.8966575945       -0.7509506770
  H        13.0066148428        9.3551541963       -1.2166328849
  H        15.0077694639        8.6363910880       -2.4988486402
  C        19.5255383136        5.9020842320        2.7129353004
  C        18.8096921143        4.7675011925        3.0793336583
  C        18.7160280221        4.4184931989        4.4290233355
  C        19.4110434417        5.1168079470        5.4334779136
  C        20.2423018594        6.1576918812        4.9935576017
  C        20.2937885953        6.5469354342        3.6732677494
  H        20.8111226089        7.4344539494        3.3129200128
  H        20.8208023305        6.7841611337        5.6548300083
  H        19.2851263053        4.8859686690        6.4757840550
  H        18.0331682301        3.6026764563        4.6382759836
  H        18.0969467324        4.1926170227        2.3476668629
  C        21.6718428172        5.0700371429        1.1974837684
  C        22.5567787563        4.2734418995        0.5291927929
  C        22.4203063677        4.1441616153       -0.8838448832
  C        21.4809109547        4.8432553527       -1.5644962146
  H        21.4173973968        4.7036048877       -2.6388908612
  H        23.0562213398        3.4877666707       -1.4758989217
  H        23.2893536314        3.7851369886        1.1473633429
  H        21.7777610294        5.1960109984        2.2780564251
  C        19.1887780133        5.8209764905       -2.9785511326
  C        18.3501442906        4.8073087050       -3.4115189178
  C        18.2688393365        4.3861588656       -4.7155849787
  C        19.1290400738        4.9345755154       -5.6668145752
  C        19.9837748240        6.0042175615       -5.2546543200
  C        20.0666692258        6.4101850199       -3.9492296544
  H        20.6574970753        7.3005488904       -3.7568874395
  H        20.5950175211        6.5555587795       -6.0172887382
  H        19.1661322767        4.3412413168       -6.6373840813
  H        17.7280789213        3.4913609029       -5.0475984717
  H        17.8318139587        4.2666205987       -2.6105574768
