140

  C        11.2421017920        6.2746941953        0.3743269059
  C        10.1912820244        6.9824234075        1.0348385323
  C         9.1634347911        7.5510447341        0.2723843400
  C         8.0067244347        8.1438442929        0.9007824403
  C         7.0891840154        8.8007479505        0.1453688752
  C        10.2454755801        7.3945875339        2.4982414504
  C        11.2633325621        8.3289149549        2.8337641543
  C        11.3944736095        8.7603935331        4.2255156675
  C        10.4177735133        8.3849486126        5.1150676939
  C         9.5094544896        7.4038228439        4.8094595850
  C         9.4466547149        6.8911716284        3.5065003266
  H         7.9270467318        8.0481251978        1.9651046339
  H         6.4062152083        9.4649358919        0.6951000007
  H        11.8520458576        8.8615846676        2.0473469960
  H        12.1449075712        9.4463510556        4.5806801559
  H        10.5462562162        8.7894763289        6.1898892428
  H         8.6643711352        7.0038274326        5.4064179807
  H         8.8772426831        5.9921636564        3.3284428503
  C        11.3105321746        6.2343661731       -1.0992865601
  C        12.4000876678        5.5117353806       -1.7976839392
  C        13.4780925049        5.0516916378       -0.9868727376
  C        13.4329101982        5.0834558112        0.3998920623
  C        12.2790267862        5.6752514243        1.1329713884
  C         9.2078716079        7.5059067056       -1.1584389458
  C        10.2200036827        6.7786129630       -1.8470156445
  C        10.2833843549        7.0526573076       -3.2941692957
  C        11.3242791702        7.9768236337       -3.6708257281
  C        11.3882528707        8.4036945894       -5.0235895307
  C        10.5073908482        7.9326086305       -6.0087993982
  C         9.4996953709        7.0072245744       -5.6541205943
  C         9.3325517644        6.6757464197       -4.2520444371
  H         8.5388110477        5.9935342827       -3.8903326398
  H         8.7982912956        6.5126090104       -6.2996890455
  H        10.6304492780        8.2366282569       -7.0500653008
  H        12.0679056424        9.0731013199       -5.4019281518
  H        12.0101891115        8.4638324316       -2.9615101099
  C         8.1804262983        8.1996051383       -1.8976830449
  C         7.2097430750        8.8946186441       -1.2458526177
  H         6.5739351323        9.5580215641       -1.8599003719
  H         8.1554750772        8.2872786176       -2.9733308600
  C        12.2153643887        5.3130925295        2.5461392071
  C        11.5801768984        4.1499386679        2.9545443312
  C        11.2228240393        3.9556513748        4.2794026414
  C        11.9904291542        4.6319835249        5.2721221515
  C        12.9307046536        5.6547980204        4.8682041063
  C        12.8719594593        6.0512917350        3.5438971118
  H        13.4287750930        6.8867972656        3.1927819913
  H        13.5741203696        6.2265631856        5.5845937589
  H        11.9713031372        4.3941507364        6.3404464863
  H        10.5787486807        3.2236311932        4.6669009058
  H        11.0345918826        3.5091083286        2.2369452657
  C        14.4509795470        4.5141752303        1.1313300343
  C        15.4602920647        3.7918663791        0.5414430577
  C        15.5931535270        3.7724874998       -0.8593564552
  C        14.6082304232        4.2993425661       -1.6213415664
  H        14.5738482687        4.2815521154       -2.7337057710
  H        16.3920393657        3.1545935608       -1.2731260351
  H        16.2248883374        3.3088346451        1.1482844393
  H        14.4515353234        4.6933292680        2.2780528668
  C        12.4703289488        5.1761683113       -3.2612003110
  C        11.5781688005        4.2795063219       -3.8179362825
  C        11.6861394615        3.7979178292       -5.1402082363
  C        12.7111199619        4.3633943628       -5.9296622202
  C        13.5710041122        5.3367135503       -5.4027392808
  C        13.4035326015        5.8028762260       -4.0989762067
  H        14.0861332251        6.5275106816       -3.5587685530
  H        14.1317863567        5.7936906261       -6.1431394872
  H        12.8101818357        4.1269780866       -6.9953659348
  H        10.9409411465        3.0753054966       -5.5535172341
  H        10.8252447595        3.7611663263       -3.2673035971
  C        18.7246509294        6.3387660216        0.5686446629
  C        17.6755165235        6.9819514617        1.2820627926
  C        16.6349858087        7.5463053245        0.5389226877
  C        15.5548968797        8.2402119811        1.2565960761
  C        14.5211574483        8.8849624045        0.6174096235
  C        17.7141091755        7.2715566091        2.7830905632
  C        18.3957830557        8.4230407360        3.1857230163
  C        18.3740420958        8.8261539699        4.5099434165
  C        17.5599855817        8.1259510183        5.3608531583
  C        16.8132428960        7.0148274005        5.0096899098
  C        16.9364801353        6.5598460216        3.7034396015
  H        15.6303369990        8.3098744369        2.3281941751
  H        13.7332086931        9.4016433886        1.1326813589
  H        19.0105384094        8.9596494602        2.4321578661
  H        19.0106923109        9.6470102650        4.9316517383
  H        17.5250304638        8.4828938040        6.4022802416
  H        16.1758494214        6.4755592753        5.6992573499
  H        16.3907447947        5.6882936745        3.3651991848
  C        18.7345499177        6.3601440712       -0.9135495352
  C        19.7355748976        5.6151388170       -1.6146564242
  C        20.8051353134        4.9531948944       -0.9332635396
  C        20.8408618120        4.9391862941        0.5281081172
  C        19.7103174265        5.4870022330        1.2354450144
  C        16.7134151438        7.7363110810       -0.9038440681
  C        17.7790922489        7.1177678816       -1.6233773977
  C        17.7573012284        7.4203537645       -3.1090939050
  C        18.5102602186        8.5370890297       -3.5675625768
  C        18.4142735759        8.9723511226       -4.8772229895
  C        17.4703388200        8.3795136125       -5.7066716510
  C        16.7087756244        7.2803333788       -5.2784136469
  C        16.8941151456        6.7706095379       -3.9957017559
  H        16.2281207581        5.9878220648       -3.6442652522
  H        15.8337102001        6.8983223988       -5.8650900713
  H        17.3321713629        8.8221786307       -6.6995413356
  H        18.9504175000        9.9004470480       -5.1804429510
  H        19.2581082272        8.9840566554       -2.7835975793
  C        15.6545254553        8.4186123172       -1.4921426783
  C        14.5775249520        8.9548798031       -0.7784918850
  H        13.7776545337        9.3613154233       -1.3726872718
  H        15.4457764951        8.4678236118       -2.5622036883
  C        19.5880643360        5.0815752927        2.6932415080
  C        18.6317498199        4.0887896655        3.1519913934
  C        18.5496354941        3.7649375725        4.5048811114
  C        19.3525156433        4.3723414198        5.5014464957
  C        20.1572085737        5.3909142022        5.0507491754
  C        20.3656373500        5.7510828428        3.6806834276
  H        20.9059147762        6.6277883518        3.4338852929
  H        20.7758446471        5.9971069118        5.7481993100
  H        19.2162054112        4.0845612287        6.4853151986
  H        17.8931186600        2.9633085392        4.8016692113
  H        18.0358654456        3.5883588469        2.4670571262
  C        21.8913336890        4.2199805415        1.1775176146
  C        22.7799262020        3.3987513516        0.4990996469
  C        22.7510455921        3.3791315505       -0.9277030640
  C        21.8099365958        4.1777856346       -1.6339768609
  H        21.8757835844        4.2009420853       -2.7289062633
  H        23.5548509481        2.8156603400       -1.4196730111
  H        23.5849534202        2.8635522344        0.9957881306
  H        21.9021566646        4.4047827856        2.2650444690
  C        19.6981172111        5.3641914132       -3.0858061679
  C        18.9222177052        4.1895495994       -3.5733274734
  C        19.0838092441        3.7207583344       -4.8874653329
  C        19.9119866780        4.4313804961       -5.7530443332
  C        20.5670294236        5.6277618276       -5.4189128395
  C        20.5150092683        5.9910294760       -4.0628618668
  H        21.2088035771        6.8118299141       -3.6999592960
  H        21.1984863624        6.1717176427       -6.1725733395
  H        19.9913747481        4.1092474511       -6.7863981661
  H        18.5455658787        2.8580778219       -5.2685060956
  H        18.2925174006        3.6593999074       -2.8043887536
