140

  C         3.8523269952       -0.5543945893       14.2300687945
  C         4.9321239311        0.1487701723       14.9122539902
  C         6.0331659845        0.6859871239       14.2441699164
  C         7.0685531398        1.3495810881       14.9826317010
  C         7.9547630049        2.1760451092       14.3384183629
  C         4.8116358985        0.5296391632       16.3663985374
  C         3.8485249876        1.4808550954       16.7439821858
  C         3.8455785980        2.0796133921       18.0099852893
  C         4.7834965693        1.6154278687       18.9756186836
  C         5.7317819393        0.5928081938       18.6131015450
  C         5.7673576512        0.0849078512       17.3000221643
  H         7.0287429034        1.3979815248       16.0870376930
  H         8.7650174783        2.7375898917       14.9091759250
  H         3.0957950264        1.7450311576       15.9659283879
  H         2.9776890198        2.6765249319       18.3159820280
  H         4.8620164214        2.0842329730       19.9159735733
  H         6.4832120520        0.2521755439       19.3381052813
  H         6.3905850896       -0.6982866966       16.9533413710
  C         3.8425517597       -0.4681304491       12.7097033692
  C         2.8844150945       -1.2866262963       12.0716000206
  C         1.7165823084       -1.7539873932       12.7456903485
  C         1.7173053312       -1.9041607361       14.1506480682
  C         2.7903388726       -1.2828203539       14.8704367265
  C         6.0362400150        0.6753445307       12.7877376702
  C         4.9284368702        0.1450792647       12.0623634285
  C         4.9018362654        0.6314700387       10.6489677737
  C         3.9958444962        1.6726809637       10.3581675596
  C         3.8838837818        2.1671289849        9.0616687102
  C         4.6379394625        1.5711682649        8.0688164011
  C         5.5617457973        0.6126091537        8.2818395859
  C         5.7150720869        0.1292624797        9.6106343919
  H         6.4031116401       -0.6867575375        9.9321400425
  H         6.1834602163        0.2499436540        7.4933673865
  H         4.4160815929        1.9222874760        7.0604879693
  H         3.1843450550        2.9621708533        8.7413151110
  H         3.2487084362        1.9314222468       11.1475972287
  C         7.0555704586        1.4811435464       12.1589267999
  C         7.9752820012        2.2033302666       12.8993364740
  H         8.6675691157        2.7941182864       12.2736501087
  H         7.1256457505        1.5664281169       11.0824610801
  C         2.9520693848       -1.6739160118       16.3033643299
  C         3.8049328726       -2.7693967869       16.6332733797
  C         3.7931452303       -3.2925687977       17.9433393618
  C         3.1035811620       -2.6696489145       18.9860798411
  C         2.4134454848       -1.5005513143       18.7021862723
  C         2.2603147947       -1.0201002705       17.3481176168
  H         1.7013806350       -0.1145539517       17.2074040381
  H         1.9760802762       -0.9399909919       19.5165232270
  H         3.0662061781       -3.0504207397       19.9610874184
  H         4.2967237860       -4.2873372311       18.1123583209
  H         4.2154291112       -3.3579647582       15.8687066709
  C         0.5129075947       -2.2965948863       14.8261913242
  C        -0.4822697908       -2.8307646806       14.0738794039
  C        -0.3248108729       -3.0906329107       12.6302639918
  C         0.7575685320       -2.5807014030       11.9848454034
  H         0.9149974441       -2.7312113842       10.9553866158
  H        -1.0330218018       -3.6545416921       12.0765913264
  H        -1.5058348962       -2.8801001110       14.3508792713
  H         0.4195405007       -2.1535560866       15.9468090921
  C         3.0535478234       -1.6700801450       10.5958819365
  C         4.0193034435       -2.6189435070       10.1813468915
  C         4.1136450411       -2.9489569763        8.7956208614
  C         3.2604583910       -2.4619611879        7.7662924752
  C         2.2453690333       -1.5768624991        8.2102348692
  C         2.1529215066       -1.2313821076        9.5405082749
  H         1.4524911577       -0.4177586036        9.7294401414
  H         1.4653154460       -1.1850454560        7.5080303278
  H         3.3953892929       -2.8470737319        6.7323307708
  H         4.9234643768       -3.7155375721        8.5738869523
  H         4.7394089265       -3.0172401565       10.8605954421
  C        11.0396710149       -0.1691678262       14.1326205990
  C        12.1101229459        0.4497271348       14.8864295283
  C        13.2092265966        1.0266791232       14.1460995480
  C        14.1868556090        1.7021136604       14.9502279154
  C        15.3188826313        2.2638928831       14.3086942371
  C        12.0041946644        0.6592746686       16.4104552081
  C        11.1565831797        1.8211327853       16.7384039017
  C        11.1227388082        2.3204526239       18.0043304131
  C        11.9632119260        1.8008027555       18.9901073149
  C        12.8060777169        0.6886033303       18.6969390172
  C        12.8849203114        0.2044118515       17.3864773621
  H        14.0119486544        1.8815034277       15.9813703160
  H        16.0924077993        2.7479060689       14.8303469602
  H        10.4909064566        2.1046124476       15.9621469147
  H        10.5117857382        3.2169511305       18.2032389466
  H        11.8773657856        2.1066007204       20.0290112720
  H        13.5087525159        0.3360153099       19.4433906102
  H        13.5472228675       -0.6654489507       17.2821651977
  C        11.0603966848       -0.2169891602       12.6651652634
  C        10.0901825886       -0.9870240465       11.9359244830
  C         8.9871398018       -1.5572943209       12.6226477366
  C         8.9614119164       -1.6049703099       14.0424587705
  C         9.9989166082       -0.9413303655       14.7915932473
  C        13.2598763569        1.0481593579       12.6694490090
  C        12.1700336865        0.4475202859       11.9684746875
  C        12.1607504654        0.8199796229       10.5033583848
  C        11.2945134210        1.7704069884        9.9689452965
  C        11.4621959900        2.1790195697        8.6104523654
  C        12.4276197347        1.5544362444        7.7556521262
  C        13.2408738451        0.6048459755        8.2392505936
  C        13.1443045380        0.2886351744        9.6266338555
  H        13.9610393025       -0.3692334988       10.0553772092
  H        13.9582471470        0.1144701758        7.5634197025
  H        12.6183740021        1.9595753146        6.7842909686
  H        10.8364679565        3.0018587059        8.2339211346
  H        10.3844920988        2.0648493714       10.4740353776
  C        14.3047400573        1.7647332087       12.1280524004
  C        15.3091285261        2.2928239037       12.8750442559
  H        16.0198514733        2.9806818961       12.3838408643
  H        14.4654420394        1.8613674253       11.0773662928
  C        10.0254971457       -1.3488372428       16.2554652241
  C        10.6811676907       -2.5657557448       16.6410439636
  C        10.7856106036       -3.0720574113       17.9378797286
  C        10.1181171568       -2.3797471889       18.9424682156
  C         9.4350610992       -1.2238491423       18.5988536976
  C         9.3855648331       -0.7079862131       17.2988868113
  H         8.7372450158        0.1446639825       17.0816823568
  H         9.0049190403       -0.6842446479       19.4585522951
  H        10.2098457097       -2.7230148284       19.9805605246
  H        11.2605942296       -4.0496433868       18.1805921547
  H        11.1192510884       -3.1357691192       15.7780402129
  C         7.8965439007       -2.3011723907       14.7557887612
  C         6.9458378166       -2.9713719395       14.0792927185
  C         7.0444535903       -3.1016740701       12.6426926249
  C         8.0012060571       -2.3934054954       11.9374684108
  H         7.9601782756       -2.5022515979       10.8348605487
  H         6.3112745572       -3.7505252217       12.1430490740
  H         6.0651585097       -3.4668077408       14.5868361467
  H         7.8573489981       -2.1941742947       15.8355288214
  C        10.2854348578       -1.2879693083       10.4844198971
  C        11.0553455891       -2.3564992527        9.9955695803
  C        11.0212699442       -2.8599135566        8.7024496093
  C        10.0953950598       -2.2322744510        7.8294382172
  C         9.3194153247       -1.1519348293        8.2904272101
  C         9.3895462134       -0.7020110250        9.5891445881
  H         8.8122107083        0.1450690920        9.8039456739
  H         8.6558661001       -0.7039449960        7.5568570135
  H        10.0769557302       -2.4759866950        6.7606906628
  H        11.5739785126       -3.7499158471        8.4970890430
  H        11.6322365615       -2.8773572156       10.7628103435
