140

  C        12.5228215283        7.3963287606        2.4334748217
  C        11.4666126913        8.0345041206        3.1355885746
  C        10.2594332653        8.4675451446        2.4866870495
  C         9.0639667289        8.8456331779        3.1349195036
  C         7.9199284400        9.2963385107        2.4766173883
  C        11.4606079750        8.4158061234        4.6495243672
  C        12.1486104025        9.4806249172        5.1338336024
  C        12.0936851656        9.8670817543        6.4955655741
  C        11.2417246451        9.1249949936        7.3238322848
  C        10.5322975406        8.0397069964        6.8533291596
  C        10.6515202278        7.6373114015        5.5496938199
  H         9.1066749146        8.8419260075        4.2145827067
  H         6.9483301925        9.4227076248        2.8961933527
  H        12.8776542417       10.0372990579        4.6223492832
  H        12.7158166858       10.6189360439        6.9019545234
  H        11.2580914598        9.2565380067        8.3918221743
  H        10.0470895608        7.4036906551        7.6084877792
  H        10.1169645840        6.8119276613        5.1447506840
  C        12.4643593948        7.2947725817        1.0020360825
  C        13.4815603693        6.4988506911        0.2976964949
  C        14.5994974995        5.9953989699        1.0641513369
  C        14.6380979521        6.1687525831        2.4982824398
  C        13.5653692228        6.7732154820        3.1934397973
  C        10.2588998903        8.4429916366        1.0414929347
  C        11.3850525339        7.9662170748        0.2711460954
  C        11.5234725596        8.2280253160       -1.1673508468
  C        12.4287246644        9.2372944161       -1.6249352756
  C        12.3418292636        9.6924594800       -2.9287360604
  C        11.3466124974        9.1542381448       -3.7915244532
  C        10.4466012371        8.1747923456       -3.3707376938
  C        10.5395115115        7.7284522763       -2.0602114293
  H         9.8548797090        6.8910127789       -1.7863823350
  H         9.6755128137        7.6881820739       -3.9714158384
  H        11.4221468739        9.5150752339       -4.8381115402
  H        13.0272384959       10.4916815857       -3.2762740382
  H        13.1108056082        9.6150629282       -0.8387375712
  C         9.0580019452        8.9446293867        0.4025764261
  C         7.9817949187        9.3959141253        1.0569676505
  H         7.1783087927        9.8173348294        0.4810472214
  H         9.0503946328        9.0674295447       -0.7005944375
  C        13.4478130273        6.3859834330        4.7082774984
  C        12.6533707462        5.2403138015        4.8837782147
  C        12.6360053312        4.6064704491        6.1194804426
  C        13.4151687700        5.1336713391        7.2006532726
  C        14.1762831194        6.2848739762        7.0460469722
  C        14.1748593157        6.9798811860        5.7739176118
  H        14.7677106942        7.9235711587        5.6511922229
  H        14.6331852821        6.7511749908        7.9734250145
  H        13.4349258974        4.6023458080        8.1389127999
  H        12.0392395262        3.6890823977        6.3696293176
  H        12.1025661093        4.8673714872        4.0277047150
  C        15.6918145933        5.4604489192        3.1502902315
  C        16.5849083974        4.5903640030        2.5059299291
  C        16.5024009160        4.4451114723        1.0488145864
  C        15.5495544871        5.1590889408        0.3573125437
  H        15.4840976998        5.0931312590       -0.7112962047
  H        17.1342510558        3.7028228859        0.5921393044
  H        17.3243804872        3.9801256308        2.9691291956
  H        15.6236037860        5.3610093160        4.2180286070
  C        13.3061296020        6.0590360182       -1.0960086934
  C        12.4795198353        5.0072027556       -1.4803722515
  C        12.3714708811        4.5568413302       -2.8197546667
  C        13.0273807847        5.2544994494       -3.8028565113
  C        13.9003053766        6.3034770103       -3.4074693887
  C        14.0008566288        6.6972647637       -2.1155305589
  H        14.6139057592        7.4685525382       -1.7835888335
  H        14.4538491344        6.8303983149       -4.2138037521
  H        13.0331995773        4.8782195581       -4.8241838732
  H        11.6170474417        3.8023709932       -3.0707865773
  H        11.9600477056        4.4836916314       -0.6618378770
  C        19.4866607450        7.3079343287        2.8630127785
  C        18.6364926970        8.1536623464        3.5753567440
  C        17.4311406609        8.6807430930        2.9241710422
  C        16.3342353121        9.2993214499        3.6249982757
  C        15.2698454409        9.7645681174        2.8536760396
  C        18.7461406859        8.5724132930        5.0400012114
  C        19.5479900783        9.6698570612        5.4020365544
  C        19.4869329937       10.0564377551        6.7604197057
  C        18.7366297499        9.3775725954        7.6903105117
  C        17.8582785514        8.3632190203        7.2849465877
  C        17.9701555493        7.8287059080        5.9995092915
  H        16.3715205256        9.4989683163        4.7127357733
  H        14.5355041480       10.4015129312        3.2466648426
  H        20.0749012905       10.3341496673        4.7073129245
  H        20.1529577912       10.8248505908        7.0990276567
  H        18.5812497042        9.8820238285        8.6493390328
  H        17.2997936828        7.8344646328        8.0918047965
  H        17.4067492500        6.9792698960        5.6235922767
  C        19.4332733282        7.2096249199        1.4062805661
  C        20.4352676994        6.4941161981        0.7451706213
  C        21.5737445766        5.9192433865        1.5067212543
  C        21.5373646529        5.9248647435        2.9375379150
  C        20.4587133177        6.5017682514        3.5784975399
  C        17.4281863247        8.6421324116        1.4701551287
  C        18.4300691387        7.9769814021        0.7081633189
  C        18.3704183618        8.1427814899       -0.7678149335
  C        19.1578351375        9.1449094631       -1.3539095492
  C        19.0044400242        9.4941307542       -2.7096067085
  C        18.0404652330        8.9560056232       -3.5206506091
  C        17.3319056743        7.9016542574       -2.9682315935
  C        17.5470657001        7.4541463939       -1.6407653418
  H        17.0080242857        6.5634660933       -1.2426423216
  H        16.6841373654        7.2893774748       -3.6214002873
  H        17.8877965977        9.1132384060       -4.5751431742
  H        19.6508619436       10.2823477139       -3.1243598519
  H        19.7976420031        9.7779377519       -0.6833689811
  C        16.2856080245        9.2505568132        0.7775292023
  C        15.2358448547        9.7692799494        1.4765350059
  H        14.2731130281       10.1896839054        1.0475250793
  H        16.2828585559        9.2552379462       -0.3023765874
  C        20.3467789730        6.0842003192        5.0126125110
  C        19.3916304187        5.1879898319        5.4019042762
  C        19.2831980386        4.7733346926        6.7108091580
  C        20.0946272489        5.3095866312        7.6428750766
  C        21.0255480790        6.3026164428        7.2956052339
  C        21.2192511995        6.5947689411        5.9788954460
  H        21.8791648796        7.3997727788        5.7542630097
  H        21.4578096391        6.8712272575        8.0687710153
  H        20.0549170920        4.9339489724        8.6503491857
  H        18.6535553059        3.9458421258        7.0017522677
  H        18.8007866825        4.7489676332        4.6282685909
  C        22.5606705498        5.1382986154        3.6035858075
  C        23.5829094237        4.5378103002        2.9337534382
  C        23.6450717733        4.6573065769        1.4794796886
  C        22.6997838526        5.3271078310        0.8421515878
  H        22.8146655807        5.5063817632       -0.1956053046
  H        24.4583733848        4.2725668768        0.9238092972
  H        24.3614541074        4.0027208791        3.4286353703
  H        22.5766995776        4.9667629402        4.6798008890
  C        20.4465026970        6.0553562771       -0.6944300073
  C        19.3574165697        5.1408327505       -0.9994872912
  C        19.2714828909        4.6019478750       -2.3253977368
  C        20.2206263886        4.9955509914       -3.3089049095
  C        21.2081225361        5.8883157693       -2.9957161352
  C        21.4033061565        6.4560431794       -1.7180521130
  H        22.1884270554        7.1688606600       -1.5461554130
  H        21.7965670027        6.1877761180       -3.8458724044
  H        20.0390488079        4.7812562540       -4.3714501402
  H        18.5341019604        3.8292872476       -2.4416580035
  H        18.7392695146        4.7671371214       -0.2364078504
