140

  C        10.7559577238        7.1887337773        0.8127576607
  C         9.7196616742        7.8703406140        1.5675848483
  C         8.6134073249        8.4781944822        0.8605413544
  C         7.3946945148        8.9950778543        1.4630107481
  C         6.3915336220        9.6602151228        0.7158797860
  C         9.7497043578        8.1916834839        3.0034668877
  C        10.2621722224        9.4001764660        3.4143643499
  C        10.1784144554        9.8028506097        4.7610666119
  C         9.3556465911        9.1319214231        5.6639687833
  C         8.7731512238        7.9040228347        5.1628591475
  C         9.0045486106        7.4501793329        3.8953838562
  H         7.1106972301        8.8927288400        2.4806719682
  H         5.5150440502       10.0048972681        1.2566918682
  H        10.8246522796       10.0388542400        2.6737239807
  H        10.6261529767       10.6892055038        5.0647872207
  H         9.1388452517        9.4728986989        6.6424763835
  H         8.1349897489        7.3288427370        5.8448807906
  H         8.6452149065        6.5172519288        3.5164210130
  C        10.6312737201        7.0522732854       -0.6473453346
  C        11.6643255503        6.3122770917       -1.3120932391
  C        12.6750265483        5.7968050561       -0.5691696165
  C        12.8030819229        5.9698869039        0.8540436691
  C        11.8216511626        6.6470790135        1.5760564941
  C         8.5953272669        8.4795743499       -0.5621338099
  C         9.6199917640        7.8653622663       -1.3104794799
  C         9.7736474599        8.1735843074       -2.7802067338
  C        10.5769225545        9.2033763415       -3.1740668107
  C        10.5035417489        9.8219593500       -4.3916361458
  C         9.6025773161        9.2654458487       -5.2956368050
  C         8.7402273393        8.2602173688       -4.9139749333
  C         8.8946294426        7.6445642104       -3.6878332143
  H         8.3467971609        6.7584682757       -3.3442524256
  H         7.8967413244        7.9347047091       -5.5641423241
  H         9.4919618515        9.7134266093       -6.3591902066
  H        11.1530215821       10.6841976827       -4.6142768351
  H        11.2123886386        9.6054893529       -2.3969043701
  C         7.6191711510        9.3084400038       -1.2359344181
  C         6.5462610518        9.8909142773       -0.6609267264
  H         5.8839641781       10.5802209172       -1.2144290145
  H         7.9131618877        9.4380319155       -2.3015664017
  C        11.8085157147        6.3848128489        3.0486790124
  C        11.1173356596        5.1602902790        3.2850444532
  C        10.9588126170        4.5946051687        4.5811852469
  C        11.4391353253        5.2787350889        5.6769735746
  C        12.0916250087        6.4924455165        5.4551832497
  C        12.3354824299        7.0352234797        4.1635390802
  H        12.8157625173        7.9706208967        3.9701438891
  H        12.1989589866        7.1120693474        6.3426844846
  H        11.2271353385        4.9265145360        6.6752315831
  H        10.2493916346        3.7445963952        4.6855849869
  H        10.6377067400        4.6147201380        2.5053002813
  C        13.9834045423        5.4296687259        1.4590279240
  C        14.9409030368        4.7431550255        0.8272657115
  C        14.8359853246        4.5449355200       -0.5566805576
  C        13.8338995915        5.1066616038       -1.2341386732
  H        13.8532411462        4.9464405227       -2.3280075745
  H        15.5502222275        3.8814229394       -1.0176562218
  H        15.8705934029        4.3462975718        1.2451220491
  H        14.1261673640        5.5118476909        2.4979651762
  C        11.4959591276        5.8403165661       -2.8061593968
  C        10.4392915288        5.0433174855       -3.2680175454
  C        10.2998355435        4.7520350136       -4.5912999862
  C        11.2463310132        5.1641493266       -5.5300524174
  C        12.2425389792        6.1172363978       -5.1085389335
  C        12.4063783402        6.3758375248       -3.7677040163
  H        13.1356345803        7.0977179767       -3.4352623319
  H        13.0185371204        6.4633979135       -5.7937809691
  H        11.3660633253        4.8470145437       -6.5741583378
  H         9.4771533514        4.0634517094       -4.9094591526
  H         9.6759890826        4.7007160521       -2.5346470045
  C        17.8361773255        7.3929745168        1.5085842536
  C        16.6912287057        7.9708340098        2.1966861127
  C        15.5687106084        8.4925561443        1.4773473823
  C        14.4270278569        9.1388186122        2.1306377154
  C        13.3665459287        9.6330535380        1.4318918288
  C        16.7498799534        8.2318736785        3.6693992445
  C        17.6952710653        9.2190467627        4.0383410319
  C        17.6718086602        9.6717359390        5.3620786505
  C        16.7928463527        9.1844533208        6.3431675715
  C        15.9907306941        8.1454265408        5.9943624127
  C        15.8783505889        7.6754081067        4.6738630293
  H        14.4451653222        9.2139627156        3.2484078741
  H        12.5179437514       10.1463263315        1.9306056142
  H        18.3509436742        9.6888384358        3.3339478858
  H        18.2953572321       10.5207617882        5.6264098226
  H        16.8772283148        9.6205824296        7.3232874276
  H        15.2094400437        7.8317462457        6.6694443453
  H        15.0895022201        6.9589606868        4.4330520240
  C        17.9036734017        7.3273438758        0.0222774562
  C        18.9079293495        6.6317658635       -0.6358348901
  C        19.9386194581        6.1495534657        0.1994234203
  C        19.9438321735        6.2682765812        1.6503454954
  C        18.8157588867        6.7547686914        2.2345526526
  C        15.6058222305        8.4431831968        0.0031049203
  C        16.7715660202        7.9449381137       -0.7194559438
  C        16.9412964765        8.3617941027       -2.1560045653
  C        17.6910633348        9.4835185936       -2.4358611722
  C        17.8773015148        9.9221912434       -3.7301863949
  C        17.0451817334        9.3768174996       -4.7659837352
  C        16.2507300680        8.2512727209       -4.4807314613
  C        16.1515752918        7.7610009635       -3.1523237347
  H        15.4985289176        6.9486833125       -2.8649575175
  H        15.6491817948        7.8100021738       -5.2513407486
  H        17.0356888727        9.8101314694       -5.7584994072
  H        18.6000162501       10.6679463478       -3.9546601366
  H        18.3351923000        9.8661283693       -1.6114684131
  C        14.4879057814        9.0722985398       -0.6569131894
  C        13.4210920581        9.6095851236        0.0511273680
  H        12.6174964558       10.1790951234       -0.4380501672
  H        14.5607322301        9.2219323235       -1.7563805349
  C        18.5949614280        6.2610257339        3.6080065318
  C        17.7162056755        5.2485774277        3.8084407103
  C        17.6831720939        4.5581276457        5.0325671374
  C        18.3823471290        5.0022814621        6.1664104176
  C        19.2066067747        6.0794078614        5.9278484140
  C        19.3956020310        6.6474571181        4.6804070690
  H        20.1262439916        7.4750649825        4.6156450075
  H        19.7905947416        6.5567217983        6.7150660703
  H        18.3686770502        4.4927164705        7.1224884122
  H        17.0594060637        3.6914717152        5.0297224139
  H        17.1195010500        4.8221553375        2.9954794958
  C        20.9612512145        5.6223257648        2.3781692645
  C        21.9511992139        4.8915417385        1.7969444033
  C        22.0139584928        4.8062127981        0.3333615558
  C        21.0155654447        5.4674340873       -0.4074024575
  H        21.0680170312        5.3586478939       -1.5049897525
  H        22.9002915603        4.3503649023       -0.0708705653
  H        22.6196118016        4.3429884659        2.4502071184
  H        20.8468880316        5.7008613273        3.4497981615
  C        18.9186569531        6.2345454184       -2.0946309684
  C        18.2617617326        5.0540075090       -2.5157952392
  C        18.3640730391        4.7326433646       -3.8508328264
  C        19.2530576482        5.3546034384       -4.7498320193
  C        19.9482466260        6.4292329984       -4.3082858864
  C        19.8185113213        6.8903699202       -2.9683904096
  H        20.2898409632        7.7780182238       -2.5815190983
  H        20.6271824665        7.0077931063       -4.9167662537
  H        19.2762931584        5.0103812597       -5.7905599952
  H        17.7453741268        3.8619037570       -4.1768643692
  H        17.5333553541        4.5831778715       -1.8823932240
