140

  C        12.1982783261        6.0053783134        0.5321884640
  C        11.1483024525        6.8260894358        1.1660924384
  C         9.9374975670        7.1944478413        0.5054945952
  C         8.8383565501        7.8916197817        1.1327538897
  C         7.8329633388        8.4854775441        0.4247546752
  C        11.2386672834        7.1544234507        2.6396762565
  C        11.9505065723        8.2660771004        3.0456445111
  C        12.0279160078        8.6486916489        4.4317756687
  C        11.1420173802        8.0351249450        5.3160550020
  C        10.2859628762        7.0367792342        4.9580052177
  C        10.4182904271        6.4982271835        3.6324951647
  H         8.8266472639        8.0130399101        2.2213075575
  H         7.0045040068        8.9712638488        0.9394488839
  H        12.4507191130        8.8552710386        2.2223162595
  H        12.8489903710        9.2713725618        4.7012660442
  H        11.1810515355        8.3524648487        6.3671027877
  H         9.5531526919        6.6671994882        5.7634730985
  H         9.7559594900        5.6412742319        3.4659566276
  C        12.1863021043        5.9610496782       -0.9393489378
  C        13.2843923881        5.2765374284       -1.5487072014
  C        14.3988249686        4.8393350071       -0.9044922466
  C        14.3203515449        4.7245908502        0.5794258248
  C        13.2117258029        5.2971472769        1.2265757727
  C         9.9157925062        7.1122020193       -0.9545445119
  C        11.0221557094        6.5911289456       -1.5897107016
  C        11.1457665030        6.7558758629       -3.1180889218
  C        11.8928572967        7.8607430246       -3.5423683701
  C        11.9316066577        8.3153268612       -4.9009652327
  C        11.0964037115        7.6334349219       -5.8686427332
  C        10.2083007198        6.6262051480       -5.3752690252
  C        10.2153333304        6.2260357823       -4.0011318714
  H         9.5619464633        5.5062927691       -3.6190598242
  H         9.5232384053        6.1570708765       -6.0371571504
  H        11.0864214986        7.7863143888       -6.9036157522
  H        12.5842352795        9.1562641813       -5.1194022641
  H        12.5775737031        8.3511222866       -2.8487052838
  C         8.8583835162        7.7378001227       -1.6706677175
  C         7.7956773622        8.3901540009       -1.0081084318
  H         6.9658682253        8.8662863274       -1.5689643212
  H         8.6347152790        7.5661764267       -2.7489776941
  C        13.0961170628        4.9669825451        2.6879802497
  C        12.5722480243        3.7381451137        2.9974183908
  C        12.7812353060        3.2305718405        4.2699940604
  C        13.5868805252        3.8450460653        5.1776511593
  C        14.2882273719        5.0288337308        4.7838499147
  C        13.9754304644        5.6695955218        3.5980525640
  H        14.5834024306        6.5036812042        3.2353631988
  H        15.0941575928        5.5108187794        5.3257954364
  H        13.6608360073        3.3757170798        6.1652938157
  H        12.3103784971        2.2366019646        4.5273830146
  H        11.9005876389        3.2133088292        2.3273903501
  C        15.3158521299        3.9768609983        1.2656295717
  C        16.4077576773        3.5043775077        0.5936932250
  C        16.6617162618        3.7831100700       -0.7606899800
  C        15.6598904507        4.3963579045       -1.4692417154
  H        15.8320516692        4.5950600843       -2.5319609763
  H        17.6506669843        3.4860466450       -1.1691722621
  H        17.1640961558        2.8256483532        1.0008741457
  H        15.2408976391        3.8067088470        2.3007172859
  C        13.2019701099        4.9329109571       -2.9965076469
  C        12.5719023903        3.7308846791       -3.4069371733
  C        12.6599328152        3.1644614694       -4.7044506675
  C        13.2503981133        3.8600872119       -5.7361840268
  C        13.8994885365        5.0671901431       -5.3974500402
  C        13.8645530491        5.6026100015       -4.0709734018
  H        14.3635797636        6.5894699454       -3.8972318717
  H        14.4629388617        5.6813413163       -6.1345989131
  H        13.3275241242        3.5204510317       -6.8225813035
  H        12.1575878843        2.2375723679       -4.8810950877
  H        12.1292184448        3.1815279193       -2.6424098537
  C        19.3448876283        5.9948232146        0.6112153426
  C        18.3082195082        6.7441210077        1.2753863472
  C        17.1786046310        7.2333643635        0.5846375960
  C        16.0609370719        7.8835435403        1.1595294175
  C        14.9457194324        8.2470463478        0.4778055687
  C        18.4328666107        7.2625977540        2.6671429445
  C        19.1985730479        8.4237977888        3.1382929852
  C        19.1870207642        8.8636659076        4.4464328276
  C        18.2623510744        8.2886465017        5.3711590457
  C        17.5092710554        7.2444350628        4.9513744554
  C        17.6115041207        6.7063121580        3.6446304622
  H        16.0340308359        8.0128640634        2.2285227432
  H        14.1539365338        8.7770188334        0.9758820319
  H        19.7475565942        8.8901961791        2.3416832319
  H        19.8107707878        9.6917335268        4.7129531041
  H        18.1765359935        8.6393447333        6.4068778586
  H        16.7753513117        6.8001782665        5.5437420407
  H        16.9653672236        5.8576245139        3.4233507181
  C        19.3722630301        5.9104826031       -0.8818834568
  C        20.4514871630        5.3392240083       -1.5813793637
  C        21.5205171942        4.7370240189       -0.8834579087
  C        21.5219975356        4.8106973932        0.5931117787
  C        20.4532290343        5.4236795658        1.3133656154
  C        17.1297194760        7.0853045690       -0.8689056716
  C        18.2609706396        6.6091208507       -1.5488102305
  C        18.4562280697        7.0840894807       -2.9625125175
  C        19.1429544995        8.2362240755       -3.1097951384
  C        19.3220028094        8.8415087171       -4.3403152983
  C        18.7573536452        8.2354808427       -5.4569578030
  C        17.9456751043        7.0918961765       -5.3157643212
  C        17.7437475623        6.5419961487       -4.0325772629
  H        17.1915291896        5.6227897595       -3.9091482319
  H        17.4187506603        6.6539321243       -6.1666431238
  H        18.9016290414        8.6793794172       -6.4166567577
  H        19.8127060356        9.7832087651       -4.5140042883
  H        19.6520142003        8.6539397628       -2.1870041514
  C        16.0186687573        7.6141235209       -1.5895453796
  C        14.9017036396        8.0546490566       -0.9057668452
  H        14.0602815438        8.3781256638       -1.4461212146
  H        15.9669944532        7.4617105975       -2.6623830658
  C        20.4750470874        5.0680384000        2.7591332499
  C        19.5881574616        4.0102927886        3.0990384874
  C        19.4925708190        3.4995707677        4.3874320490
  C        20.2521235545        4.1174987953        5.3704964767
  C        21.1239827437        5.1472827533        5.0884709114
  C        21.2452411302        5.6406408944        3.7539273494
  H        22.0237474226        6.3842751598        3.5466411292
  H        21.7144788503        5.6053152382        5.8290548401
  H        20.2525371612        3.7023370764        6.3667956279
  H        19.0086077103        2.4895728617        4.4412089760
  H        18.9255890892        3.6164672798        2.2977716410
  C        22.6646644352        4.2062173326        1.2669992793
  C        23.6583122170        3.6003389633        0.5781254143
  C        23.6610782855        3.4972133448       -0.8204307446
  C        22.5693749139        4.0056819584       -1.5291926144
  H        22.4433900649        3.8558365901       -2.5583986917
  H        24.4181025680        2.9331298780       -1.3151236249
  H        24.4675474581        3.0445991248        1.0721481169
  H        22.6487861964        4.2230409524        2.3542990958
  C        20.3174193928        5.0393679823       -3.0450744880
  C        19.5267520389        3.8939965817       -3.3397070071
  C        19.4765003688        3.3975270923       -4.6659413703
  C        20.2970987606        3.9699571938       -5.6073436195
  C        21.1566461253        5.0412269343       -5.3100411499
  C        21.0997837051        5.6270365625       -4.0237941510
  H        21.8384162309        6.5260661508       -3.8526287780
  H        21.8681970234        5.4255982775       -6.0993969080
  H        20.2512662201        3.6279471773       -6.6402205696
  H        18.7977778084        2.5766276112       -4.9555553841
  H        18.9780092456        3.4356554037       -2.5061691548
