140

  C         7.8383756879        8.0566411159        1.4377154165
  C         6.8435842679        8.8338650591        2.1146196021
  C         5.7342959150        9.3826290525        1.4089140603
  C         4.6737902276       10.1161031883        2.0996034196
  C         3.6270474551       10.6792790363        1.3951894332
  C         6.9385662760        9.2320179574        3.6058055289
  C         7.7293408819       10.3206434358        4.0319637445
  C         7.5859460950       10.8501697906        5.3369967831
  C         6.7032331782       10.2505591965        6.2129073859
  C         5.9771751484        9.1235323269        5.8317906965
  C         6.0717178952        8.6286565005        4.5062668780
  H         4.6908572709       10.0754358883        3.1909170721
  H         2.7954363103       11.1033882940        1.9300488221
  H         8.3475408778       10.7507115923        3.2653520491
  H         8.2004320127       11.7350370535        5.6680632180
  H         6.5881278302       10.5064590082        7.2995182486
  H         5.2771500031        8.7120873554        6.5247719296
  H         5.4460379834        7.8411524999        4.1137242686
  C         7.8592791420        8.0396180842       -0.0396262404
  C         8.9696976279        7.4369687702       -0.6848313032
  C        10.1148467204        6.9970155506        0.0301787013
  C        10.0945059755        7.0312970804        1.4783763344
  C         8.9317881775        7.4502125987        2.1084339465
  C         5.8044390006        9.4128822395        0.0008494942
  C         6.8435567787        8.7948935341       -0.7386665839
  C         6.8809793252        9.1113895380       -2.2142833148
  C         7.8487877639       10.0305710306       -2.6817923924
  C         7.7848664680       10.6311493089       -3.9745535440
  C         6.8019355343       10.2705398602       -4.8778443264
  C         5.9438722995        9.2620991637       -4.4404574286
  C         5.8734921487        8.7754402147       -3.1642514271
  H         4.9539958028        8.1986852065       -2.9664740988
  H         5.1578080793        8.9754082922       -5.1322046360
  H         6.8260335568       10.6799747767       -5.8852697602
  H         8.6656513092       11.1912997307       -4.3406940580
  H         8.5722362385       10.3715798668       -1.9816652543
  C         4.7464195191       10.1262841623       -0.6617813198
  C         3.6822824132       10.7341596332       -0.0294981755
  H         3.0030026753       11.3836053533       -0.5387225429
  H         4.8897194341       10.2441559132       -1.7431626151
  C         8.8633483329        7.1417530239        3.5843437196
  C         8.0600380950        6.1323491958        4.1668154137
  C         8.0394863432        5.8464724076        5.5225300732
  C         8.8751403130        6.4860063389        6.4278237527
  C         9.7184174888        7.4579412503        5.9499526797
  C         9.6718248674        7.8298092786        4.5345623611
  H        10.5129814791        8.4357516608        4.1964022331
  H        10.3382615622        7.9696007658        6.7026194658
  H         8.9159936928        6.3784299362        7.5051209116
  H         7.4344235915        4.9843930347        5.8785598583
  H         7.3771495374        5.6665757472        3.4515993701
  C        11.3729898109        6.6583355973        2.1440850701
  C        12.4169075566        6.0833619100        1.4865864344
  C        12.3187899583        5.9141415782        0.1030010614
  C        11.1832554652        6.3152508675       -0.5889269332
  H        11.2389090340        6.2071770092       -1.6793898269
  H        13.1897613700        5.4960825281       -0.4336414552
  H        13.2976588540        5.6816419530        1.9650947197
  H        11.4275466842        6.7126203846        3.2404662267
  C         8.8872461845        7.1327800820       -2.1493589993
  C         8.1054479734        6.0425475028       -2.5703962723
  C         8.1073434258        5.6384600915       -3.9371025251
  C         8.9104769762        6.3103835070       -4.8675302022
  C         9.6589087310        7.4206873150       -4.4258325206
  C         9.6614620854        7.8206399773       -3.0726220671
  H        10.2005064939        8.7296794046       -2.8401531211
  H        10.3614761994        7.8580210688       -5.1588143660
  H         8.8630333878        6.0541824141       -5.9612002207
  H         7.4001440956        4.8678208350       -4.2703634569
  H         7.4175752286        5.4581904818       -1.8977032185
  C        15.1756402321        8.6440033513        1.6453797709
  C        14.1543613656        9.4013696362        2.2834396613
  C        12.9788673111        9.7683202671        1.5977448044
  C        11.7756567493       10.2516488191        2.2762515802
  C        10.7304569646       10.7230360933        1.5427982406
  C        14.2623213588        9.8217993604        3.6801153218
  C        15.0603774839       10.8576165265        4.1288015559
  C        14.8971300605       11.3132771244        5.4167039335
  C        14.1989088786       10.5844378311        6.3811957606
  C        13.5470627523        9.4364720741        6.0113645517
  C        13.6252362525        9.0837505086        4.6425968092
  H        11.7371153346       10.2626417261        3.3724923352
  H         9.8416153372       10.9169436469        2.1450548071
  H        15.5731709389       11.3557588051        3.2822555971
  H        15.4435978100       12.1826115687        5.7728270913
  H        14.1653038160       10.9790926021        7.3717383690
  H        12.8955082878        8.8603736713        6.7288284469
  H        13.0098940517        8.2729740102        4.2386354127
  C        15.1527185490        8.5568925341        0.1670804347
  C        16.1300264091        7.7188936495       -0.4579600829
  C        17.2066504816        7.1059240014        0.2808169718
  C        17.1921449651        7.2406316713        1.7419549704
  C        16.2735387811        8.0192886472        2.3711582279
  C        12.9546193966        9.6676623304        0.1485114882
  C        14.0596532366        9.2078932777       -0.5900801156
  C        14.1163807935        9.5326282040       -2.0872830584
  C        14.7771894092       10.7117940933       -2.5763457690
  C        14.7257943896       11.0885879771       -3.9413260059
  C        14.0569516693       10.1916776409       -4.8486375517
  C        13.3578884312        9.0848538086       -4.3424899769
  C        13.3746173102        8.7731047387       -2.9947446838
  H        12.7910986231        7.8949476251       -2.6403084780
  H        12.8171973243        8.4513704341       -4.9883443997
  H        14.0519601981       10.3416874810       -5.9667355768
  H        15.1499066905       12.0431834913       -4.2472174586
  H        15.1483137484       11.4852263953       -1.9497917078
  C        11.8056730277       10.2098268704       -0.5668012635
  C        10.6814494123       10.5851879691        0.0888880229
  H         9.8196404088       11.0339566512       -0.4523472871
  H        11.7854652568       10.0255755761       -1.6118516207
  C        16.2308477058        7.7576191270        3.8762223305
  C        15.5994365358        6.6073191813        4.3349230011
  C        15.5758169726        6.2233759686        5.6793027901
  C        16.2846934246        6.9225673005        6.6275178434
  C        17.0319520111        8.0255105348        6.1596461997
  C        16.9237138760        8.4895357231        4.8301267090
  H        17.3317657632        9.3938516023        4.5166757321
  H        17.6667160341        8.5206166634        6.8269081452
  H        16.2624691614        6.6916183803        7.6702012912
  H        14.9930730560        5.3548850196        5.9634296335
  H        15.1307929609        5.9807771848        3.5627028218
  C        18.1947473816        6.4521656556        2.4570496958
  C        19.1370986367        5.7560475501        1.7357536164
  C        19.1116045008        5.6892501286        0.3198539265
  C        18.1961697945        6.3926369556       -0.4041958591
  H        18.1402232438        6.4600700875       -1.4826129360
  H        19.8211209273        4.9738618086       -0.1442730335
  H        19.9610167312        5.2056639447        2.1725551725
  H        18.3726441079        6.4989252646        3.5166290237
  C        16.0142836773        7.4377678513       -1.9888518265
  C        15.3073184402        6.3276892216       -2.3724618997
  C        15.3644517650        5.8543285724       -3.6867877848
  C        16.0302383743        6.6438687390       -4.6446126742
  C        16.8418258860        7.7236367886       -4.2679911672
  C        16.7741957380        8.1736721820       -2.9428937592
  H        17.3023568544        9.0951613411       -2.6155764108
  H        17.3656523663        8.1716195955       -5.0864860119
  H        16.0223002418        6.3113479997       -5.7250871039
  H        14.8877911928        4.9134101321       -4.0314835624
  H        14.8896934101        5.7459727228       -1.5574244034
