140

  C         3.6597717531       -0.0677833840       14.5660463752
  C         4.6621785521        0.5969606572       15.3041428618
  C         5.7192764466        1.2714422716       14.6329033633
  C         6.8520718932        1.8179371125       15.3658240903
  C         7.8739714613        2.5394979399       14.6651312368
  C         4.5719835215        1.0054003359       16.7943731998
  C         3.8223366745        2.1231399734       17.1373979025
  C         3.8397146496        2.6738582967       18.4317146073
  C         4.6214479869        2.0358452507       19.4459703863
  C         5.4032015199        0.9230399305       19.0502816513
  C         5.3364001419        0.3903527197       17.7651967770
  H         6.9186391029        1.7958178361       16.4526271983
  H         8.6350957228        3.1053579333       15.1802062180
  H         3.2605232605        2.6732426534       16.4012489495
  H         3.3119655542        3.6290779400       18.5952437049
  H         4.6589051804        2.4312756990       20.4647271235
  H         6.0262883379        0.5470393720       19.8996433534
  H         5.9723989126       -0.4324481777       17.5962190373
  C         3.6374445751        0.1213514530       13.0698341774
  C         2.6877536056       -0.6748953168       12.3176790937
  C         1.5321476436       -1.1733439381       13.0003554242
  C         1.4217702663       -1.1527319545       14.4409041547
  C         2.5535830085       -0.6936288451       15.1934257963
  C         5.7322161159        1.4188993859       13.1711968912
  C         4.5946480930        0.9487082010       12.4215646456
  C         4.3993201189        1.5035682012       11.0317891081
  C         3.4942091575        2.5335340857       10.8470926006
  C         3.4286714369        3.2527818607        9.6566001512
  C         4.3891210580        2.9769052548        8.7217695623
  C         5.1863366103        1.8699164892        8.8068344332
  C         5.2867858514        1.1421940802        9.9521078535
  H         5.9317744284        0.2474052264        9.9499867442
  H         5.8770320429        1.8196238690        7.9956654887
  H         4.4026412270        3.5608654203        7.8005780549
  H         2.7165128839        4.0070551545        9.3747596091
  H         2.7527407234        2.8281501613       11.6014313179
  C         6.8225897282        2.0641802235       12.5132592938
  C         7.9002200795        2.5297586602       13.2501953657
  H         8.6487057228        3.0072867594       12.6374368560
  H         6.8123166756        2.2517081416       11.4337764376
  C         2.5650363125       -1.0536072074       16.6497355696
  C         3.4755151435       -2.0473162805       17.2528715136
  C         3.2727975985       -2.3935523380       18.5884002384
  C         2.3055714863       -1.7437195048       19.4156042312
  C         1.4482283787       -0.8365827644       18.8205126597
  C         1.6013304254       -0.4787819556       17.4744726553
  H         0.9405988585        0.2658797757       17.0202221673
  H         0.6378659688       -0.5273690944       19.4278509076
  H         2.1272950928       -2.0739507321       20.4377742681
  H         3.9098057873       -3.0956558927       19.1547882474
  H         4.1940914612       -2.5559284910       16.5558558742
  C         0.2300810404       -1.6450383201       15.0907515189
  C        -0.6950965523       -2.3397660345       14.3308604037
  C        -0.5010267105       -2.5023583308       12.9101744201
  C         0.5746191558       -1.9607382567       12.2851954086
  H         0.7190056578       -2.0842402851       11.1984119018
  H        -1.0722649610       -3.2339289744       12.3283609115
  H        -1.5115625447       -2.9038206331       14.7054511739
  H         0.0937785167       -1.3784576105       16.0961368229
  C         2.9047745987       -1.0634267764       10.8548329204
  C         3.8178135110       -2.0203066321       10.4338909691
  C         3.8791450022       -2.5487184304        9.0989728507
  C         3.1072459259       -1.9397093455        8.1553107839
  C         2.2827478148       -0.8994620085        8.5512138949
  C         2.1806212182       -0.3639968199        9.8219449752
  H         1.5231145590        0.4498066558        9.9739735901
  H         1.7622383656       -0.3519263324        7.7570353216
  H         3.1202093394       -2.3076791449        7.1213041588
  H         4.5133321373       -3.3624657520        8.7358597362
  H         4.5107675358       -2.5034854091       11.1830950351
  C        10.8243991650        0.0766127355       14.7727528148
  C        11.8029924248        0.9246447731       15.4193793978
  C        12.9088859480        1.3155004029       14.6767328136
  C        13.9833615912        1.9082742818       15.3932356215
  C        15.1350117387        2.2911512127       14.7298097817
  C        11.6429321775        1.1919395196       16.8811096259
  C        10.7601267403        2.1996137022       17.3196228157
  C        10.5596521468        2.4407551371       18.6617728332
  C        11.2305375939        1.7097764609       19.6407892295
  C        12.1739930117        0.8028294095       19.2135235499
  C        12.3638389954        0.5369105515       17.8471788089
  H        13.9369864235        2.1251163288       16.4610510524
  H        16.0637195552        2.6808585210       15.1776440699
  H        10.1025395174        2.7592524862       16.6720564754
  H         9.9025050091        3.2674829081       18.8865789231
  H        10.9326959793        1.8563320157       20.6800045938
  H        12.7196223175        0.2091966428       19.9106620455
  H        13.1212074866       -0.1323825020       17.5405133631
  C        10.7816632820       -0.0051217492       13.2762578474
  C         9.6592505996       -0.5383186730       12.6189768579
  C         8.5079611128       -0.9398152506       13.3657468159
  C         8.6980320373       -1.1599587227       14.7619772992
  C         9.9056687709       -0.6917721599       15.4873299580
  C        12.8910496762        1.2008464230       13.2524395955
  C        11.8317633643        0.6398924624       12.5910500601
  C        11.8011276141        0.7719963370       11.0792413744
  C        11.1498990247        1.9364051196       10.5734899606
  C        11.3324886749        2.2026228687        9.2135585284
  C        12.2239564118        1.4656349576        8.4300875638
  C        12.8726593344        0.3237812793        8.9587410960
  C        12.6318384052       -0.0258081764       10.2905506080
  H        13.0374506941       -0.9552172257       10.6627069580
  H        13.5728878134       -0.2147375852        8.3721074315
  H        12.2078536318        1.6005415885        7.3774744629
  H        10.7631360906        3.0062679219        8.7476574885
  H        10.4771007471        2.4659084417       11.1808025751
  C        14.0480148336        1.7360888332       12.5960767794
  C        15.1121397739        2.3221284021       13.2774497361
  H        15.8496377479        2.8944387839       12.7154852491
  H        13.9833341181        1.7134967603       11.5375968160
  C        10.0906260039       -1.1883754713       16.9624823477
  C        10.9805171288       -2.2074691162       17.3603310819
  C        10.9884357122       -2.6861695673       18.6651993894
  C        10.0879152317       -2.1164816714       19.5894425774
  C         9.1526618159       -1.1731787673       19.1459800769
  C         9.1356344479       -0.7438874017       17.8572045210
  H         8.4648419792        0.0603693166       17.5806262310
  H         8.4622213080       -0.7500985877       19.8439178724
  H        10.1043195126       -2.3195676277       20.6272528133
  H        11.7595227938       -3.3992834839       18.9969810469
  H        11.7684604591       -2.6509110263       16.7742494530
  C         7.7316776378       -1.9607609800       15.4460329877
  C         6.5434318763       -2.3070120329       14.8257963176
  C         6.2739653037       -1.9108268499       13.4772466137
  C         7.2355909995       -1.2769101950       12.7576888348
  H         7.0251463490       -1.0515841826       11.7221209415
  H         5.3995957366       -2.1733003760       12.9253602946
  H         5.7460591381       -2.7995187091       15.3371588732
  H         7.8625955978       -2.2148710514       16.4851379111
  C         9.6515857635       -0.9585649913       11.1660819440
  C        10.4246025930       -2.0875563683       10.7851071692
  C        10.3830415239       -2.4505741898        9.4570305653
  C         9.5121697912       -1.9032510763        8.4673274484
  C         8.6814114986       -0.8303607393        8.9377563098
  C         8.8570405158       -0.3068817645       10.2557109504
  H         8.2796405985        0.5571882831       10.6180962519
  H         8.0490185295       -0.2646110597        8.2435435598
  H         9.2986323360       -2.3293344470        7.4783076631
  H        10.8854564227       -3.3444208556        9.1117450708
  H        11.0812630869       -2.5494134402       11.5041414164
