140

  C         4.2165569465       -0.7738648845       14.0922645157
  C         5.1669111063       -0.1507791405       14.8833968401
  C         6.2630970890        0.4332966698       14.2004086025
  C         7.3421468403        1.0163632075       14.9355189627
  C         8.4499014099        1.4700011103       14.2844899781
  C         5.2046132115        0.1590317529       16.3447484753
  C         4.5417068259        1.3199542785       16.8172349124
  C         4.7962377890        1.8937607285       18.0515592741
  C         5.5801948902        1.2317408025       19.0118845568
  C         6.1442184748        0.0287339439       18.5789943952
  C         5.9909061219       -0.4994533941       17.3255376677
  H         7.2982301251        1.0971492927       15.9916421941
  H         9.3155262325        1.8636135996       14.8221650327
  H         3.9319842804        1.8016172032       16.1083745273
  H         4.5064562700        2.8514390986       18.3568896395
  H         5.8267177770        1.7068358990       19.9455024696
  H         6.7785093497       -0.4614021763       19.3152483352
  H         6.6016509818       -1.3610978938       17.1086397567
  C         4.2291576251       -0.7801055049       12.6208576129
  C         3.1232417091       -1.3423913558       11.9577716305
  C         1.9976340887       -1.8658781274       12.5940695203
  C         1.9806547027       -1.9180596041       14.0372389075
  C         3.1304248547       -1.4738772278       14.7264168081
  C         6.3492291014        0.3687565678       12.6618872257
  C         5.2735782664       -0.1691237320       11.9243768305
  C         5.2561716833        0.2550473965       10.5207245708
  C         4.5350903463        1.3624136265       10.0498579985
  C         4.5555765100        1.8408783775        8.7341551030
  C         5.4957519564        1.3159058436        7.8954596650
  C         6.3484690325        0.2584293264        8.2974756589
  C         6.1772709223       -0.2779566232        9.6444946622
  H         6.8231404419       -1.0682453390       10.0505692723
  H         7.1291877898       -0.0109901899        7.5471591324
  H         5.5746240409        1.9058481724        6.9902516826
  H         4.0097810384        2.7572515133        8.4524600197
  H         3.8470480904        1.7481427897       10.7242810162
  C         7.6085741507        0.7793296399       12.0879709673
  C         8.5664492836        1.3508446278       12.8835695340
  H         9.5027250671        1.6723802535       12.3995082808
  H         7.7985953648        0.7306332136       11.0060326320
  C         3.1634856255       -1.8284325616       16.1483280395
  C         3.9354993205       -2.8965447955       16.5611303288
  C         3.9767991688       -3.3063329036       17.8930317292
  C         3.2888703170       -2.5610117626       18.8671439322
  C         2.4400858811       -1.5466801898       18.4221229924
  C         2.2889945532       -1.2696014202       17.0252326420
  H         1.6507134999       -0.4363411593       16.6817081877
  H         1.8454364818       -1.0648302961       19.1519543351
  H         3.4143025054       -2.7724367694       19.8989015340
  H         4.5568461295       -4.2271603120       18.1132633930
  H         4.6279515101       -3.3713744811       15.9636886087
  C         0.8484217922       -2.5855148218       14.6754083429
  C        -0.1520514460       -3.1021377500       13.8527513245
  C        -0.1190988730       -3.1165069619       12.5337968378
  C         0.9462140229       -2.4958968934       11.8477875154
  H         1.0063047387       -2.6457325603       10.8057928722
  H        -0.8746373062       -3.6541973449       11.9878359706
  H        -0.9874553711       -3.5887776506       14.3765601790
  H         0.7548246359       -2.7704026066       15.7509124627
  C         3.0092307051       -1.6485838504       10.4356037488
  C         3.6931610488       -2.7897641522        9.9243189787
  C         3.7498084411       -3.0697257101        8.5499246002
  C         2.9768169730       -2.3184939245        7.6283698993
  C         2.2994681892       -1.2429214389        8.1248328399
  C         2.3662945826       -0.8484211845        9.4866962074
  H         1.8974038402        0.0928034245        9.7648657975
  H         1.7269504389       -0.7093080767        7.3605453690
  H         2.7999306117       -2.6520792095        6.6011593082
  H         4.3205363644       -3.9862291596        8.2093699644
  H         4.2294643856       -3.5507005201       10.4952336426
  C        11.4498098092       -1.1636263015       14.1419768497
  C        12.4197871574       -0.4093877186       14.9036850987
  C        13.6009747116        0.0726940671       14.2436688652
  C        14.6353446781        0.7935735502       14.9213595068
  C        15.6139003345        1.5033976873       14.2496745613
  C        12.3983163039       -0.1115669354       16.3543675978
  C        11.6159207328        0.9679439404       16.8955867819
  C        11.6533477126        1.3808844713       18.1873755215
  C        12.5369811772        0.7642763732       19.0714065348
  C        13.3123223731       -0.3460424654       18.5849708922
  C        13.1670086066       -0.8223196150       17.2512979323
  H        14.7542492741        0.7641074116       15.9820463613
  H        16.4216750682        2.0070002550       14.7170283510
  H        10.9512440472        1.5139334455       16.2417587582
  H        11.0115474410        2.2151352961       18.4565241570
  H        12.7747100390        1.1957765100       20.0528533181
  H        14.0627797666       -0.7699182214       19.3100419901
  H        13.7332086518       -1.7139796941       16.9359445321
  C        11.4851271500       -1.1297879888       12.6936238589
  C        10.4607663586       -1.7738855201       11.9511567011
  C         9.2683493318       -2.2630706322       12.5585747598
  C         9.1920456114       -2.1776188069       13.9775393784
  C        10.3174058621       -1.7973033263       14.7347994789
  C        13.6068276929        0.1660547616       12.7580531202
  C        12.5640798172       -0.4809039769       12.0159117639
  C        12.4298321455        0.1081849208       10.6261164394
  C        11.5051640749        1.1222357258       10.4356251864
  C        11.3800347119        1.7326782457        9.2061308261
  C        12.1560161869        1.3514113866        8.1257560061
  C        13.1429784021        0.3998119568        8.3322859626
  C        13.2693490156       -0.2754960322        9.5727309505
  H        14.1061925542       -0.8641121165        9.8960411213
  H        13.8148055975        0.0841856443        7.5244567825
  H        12.1265740987        1.9288917430        7.1114895058
  H        10.7784676961        2.6348903154        9.1188080656
  H        10.9744309826        1.4301532504       11.3062218259
  C        14.6154800601        0.9674542022       12.1107609202
  C        15.5377461777        1.6491691667       12.8388166703
  H        16.3347008620        2.1495362350       12.2911989966
  H        14.5106010785        1.1342423252       11.0524656492
  C        10.2009577404       -2.1286377431       16.2097584283
  C        10.7680528774       -3.3047640265       16.6999863744
  C        10.6519722463       -3.5504137242       18.0889262406
  C         9.9647282759       -2.7590996098       18.9524095737
  C         9.2976838378       -1.6563685760       18.4163575192
  C         9.4806644216       -1.2899072315       17.0906696677
  H         9.0380953755       -0.4231810165       16.6409729926
  H         8.8568129241       -0.9820000166       19.1702248659
  H         9.8423278906       -3.1337237685       19.9863750410
  H        11.2066012949       -4.3928205531       18.5175024638
  H        11.2145868747       -3.9923775599       16.0421002098
  C         8.0133066203       -2.6819296236       14.6531781586
  C         7.0296931111       -3.2929912547       13.9065228785
  C         7.1546494590       -3.4402891453       12.4930216777
  C         8.2190397439       -2.9663652924       11.8331836543
  H         8.1870771063       -2.8636501951       10.7613766920
  H         6.3579994439       -3.9972831421       11.9814702352
  H         6.2213123178       -3.7799886962       14.4150454663
  H         7.9812203140       -2.7937469121       15.7222321917
  C        10.5782792883       -2.0386893159       10.5078572569
  C        11.3633979284       -3.0583258209        9.9987227662
  C        11.3112592573       -3.4798321074        8.7049550178
  C        10.4658771465       -2.8135056412        7.7928369694
  C         9.6536826966       -1.7536532258        8.2557191034
  C         9.7912071839       -1.3757822085        9.6163348978
  H         9.1942229962       -0.5384370993       10.0315001281
  H         9.0221460318       -1.1404216526        7.5834241325
  H        10.3844926998       -3.1181975396        6.7470345705
  H        11.7846294496       -4.3691758585        8.2885120193
  H        11.9048216707       -3.6258017884       10.7571379229
