140

  C         2.9033500127        0.2331246086       14.7094476643
  C         3.8898185195        0.9651078918       15.4410097885
  C         4.9333850843        1.5408472966       14.7439372041
  C         6.1545970176        2.0664938059       15.4123865555
  C         7.2098592555        2.5962402981       14.7569760897
  C         3.7579299678        1.3285707676       16.8881976639
  C         2.9881457651        2.4703806004       17.1879044699
  C         2.8232309766        2.8499512326       18.5498995676
  C         3.6739626699        2.2405340800       19.5014089347
  C         4.4538506463        1.1600098071       19.1447115704
  C         4.5644447602        0.6679486519       17.8528779046
  H         6.2500866521        1.8834989938       16.4520191682
  H         8.1336250961        2.8064606479       15.2566521549
  H         2.4873489391        3.0517965036       16.3965119823
  H         2.0502846470        3.5943166790       18.6962398220
  H         3.6988806127        2.4225114499       20.5511016584
  H         5.0397880568        0.7635862257       19.9702528712
  H         5.1727212372       -0.2169057264       17.6387127452
  C         2.9480573888        0.1952156761       13.2285409640
  C         1.8877084517       -0.4391150232       12.4837241995
  C         0.7617536302       -0.9878390866       13.0923834561
  C         0.6798608583       -0.8304156074       14.5250527232
  C         1.8106700757       -0.4651560503       15.3230748477
  C         4.9508765021        1.5652666613       13.3166431496
  C         3.9069440721        1.0151535679       12.5833009712
  C         3.8729130506        1.3238629865       11.1316382373
  C         3.1596379163        2.3728572562       10.5892472506
  C         3.1537449631        2.7631290330        9.2035780136
  C         3.8424469385        2.0280131451        8.3102111770
  C         4.7359525954        0.9917287620        8.7724425493
  C         4.6504753759        0.6190027389       10.1557934134
  H         5.2289182498       -0.2947292959       10.3961290855
  H         5.3199103744        0.4358681945        8.0412623023
  H         3.8966601993        2.2054439567        7.2601410725
  H         2.4944768698        3.6131582868        8.9328097345
  H         2.6662846711        3.0422818284       11.2621641219
  C         6.1198717432        2.0537961701       12.6700280645
  C         7.1737175137        2.6336302284       13.3404391902
  H         7.9972621576        2.9645328365       12.7550599170
  H         6.1733498203        2.0497713184       11.5419407548
  C         1.7752374856       -0.7717324957       16.8133993160
  C         2.3719445623       -1.9990558284       17.2492707406
  C         2.3634903497       -2.3393211597       18.6188580834
  C         1.8422913943       -1.4375412690       19.5473588267
  C         1.0312180273       -0.4103210774       19.0932453245
  C         0.9963399363       -0.0070876298       17.7913692542
  H         0.4520151621        0.8277770440       17.4154873622
  H         0.4306559818        0.1191468336       19.7872489779
  H         1.9033354650       -1.7282691191       20.6267194084
  H         2.8459971938       -3.2790824997       18.9875842611
  H         2.8898163665       -2.5956499864       16.4753367671
  C        -0.5603311352       -1.2337117219       15.2314446548
  C        -1.5258235269       -1.8561418473       14.5036325345
  C        -1.3867449915       -1.9957089807       13.1013769313
  C        -0.3127039514       -1.6118204657       12.3997685348
  H        -0.2972673400       -1.6744866223       11.2985155047
  H        -2.1632754564       -2.6171710716       12.6965133950
  H        -2.4390766379       -2.2083840046       14.9542382292
  H        -0.5474688017       -1.1888510106       16.3186835179
  C         1.9556776322       -0.7530552415       11.0204527961
  C         2.7688372627       -1.8399960173       10.5320314143
  C         2.7469381495       -2.2930616361        9.1957453321
  C         1.9750580254       -1.5487084473        8.2455972977
  C         1.2968610003       -0.4376358904        8.7081589842
  C         1.2255001931       -0.0474632409       10.0349744011
  H         0.6754763612        0.7784585842       10.4239943919
  H         0.6984683594        0.1599949612        8.0037812782
  H         1.8798584001       -1.8781376764        7.1773401808
  H         3.3872387083       -3.1710112498        9.0538071160
  H         3.3552005316       -2.4473163349       11.2247505629
  C        10.2500867659        0.1941844260       14.5564958315
  C        11.3089767862        0.6981801302       15.2900363520
  C        12.4427204967        1.3361270695       14.6676029488
  C        13.4151345480        2.0370773207       15.4482412288
  C        14.4968414920        2.5984633642       14.8539443971
  C        11.2332824509        0.9598271050       16.7944276981
  C        10.4682224095        2.1302885931       17.1314074868
  C        10.5082790540        2.5203057048       18.4824601392
  C        11.2150173001        1.7904363523       19.4701736507
  C        11.9261818023        0.6202434459       19.0587161333
  C        11.9871523260        0.2647449581       17.7202990652
  H        13.3737204127        2.0809708965       16.5403295306
  H        15.1112148703        3.2011518069       15.5333275843
  H         9.8454026537        2.6347555071       16.3928688639
  H         9.8731236740        3.3093309861       18.8288204305
  H        11.2055582053        2.1254475158       20.4935755362
  H        12.5637214367        0.0459221201       19.6547956494
  H        12.4869419804       -0.6227068200       17.3812148255
  C        10.2311330407        0.2786352687       13.0992375919
  C         9.1883775118       -0.4047730948       12.4128677140
  C         8.0967057458       -1.0310001704       13.0942424196
  C         8.1123592693       -1.0617748966       14.5534854186
  C         9.1790796578       -0.5358450170       15.2879744132
  C        12.5363375207        1.3845029534       13.2310513524
  C        11.3607042680        0.9695170257       12.4940372593
  C        11.4022311227        1.3820061966       11.0039580181
  C        10.5732164780        2.5444138550       10.7881461257
  C        10.4161168518        2.9167882807        9.4560542193
  C        11.1679281483        2.3206957007        8.4424042450
  C        12.1172021901        1.2918793035        8.6624869893
  C        12.1451878936        0.7458739320        9.9575034562
  H        12.6184854704       -0.2077834283       10.2040433103
  H        12.6237341651        0.8857784435        7.8084995145
  H        11.0650751867        2.6660329673        7.4060669915
  H         9.6654937889        3.7102275882        9.2887746615
  H        10.0066234235        3.0115122218       11.5593946654
  C        13.6046674094        2.1383818914       12.6434330486
  C        14.6212625774        2.6563882315       13.4569808922
  H        15.5124313477        3.1104219249       12.9120603665
  H        13.8230258749        2.2984369859       11.5726577743
  C         9.2122706295       -0.8682881311       16.7502857759
  C        10.0783205917       -1.8509279022       17.2490724346
  C         9.9566129070       -2.2586900116       18.5680675244
  C         9.0577956439       -1.6426880064       19.3997338130
  C         8.0210108680       -0.8168597736       18.8645103615
  C         8.1180173695       -0.4109403275       17.5224631298
  H         7.3959712836        0.3262419858       17.1197602289
  H         7.2949530880       -0.4316408777       19.5688298094
  H         9.0894023063       -1.8400130750       20.4752751015
  H        10.6842586630       -2.9137624006       18.9932881104
  H        10.7072916055       -2.3749425137       16.5436111768
  C         7.0536862128       -1.8447329029       15.1758715151
  C         6.0571509358       -2.4554369751       14.4560161762
  C         6.1313266285       -2.4310605990       13.0185229078
  C         7.1458272516       -1.8304963141       12.3621335203
  H         7.2049643476       -1.7831372505       11.2430504606
  H         5.3117014124       -2.9903146461       12.5248299081
  H         5.2556736840       -2.8763411947       15.0182209195
  H         6.9921558121       -1.9719723238       16.2700565283
  C         9.3306729886       -0.7339031242       10.9410483919
  C        10.2194142053       -1.8460641312       10.7134946504
  C        10.1326717226       -2.4662751998        9.4922438010
  C         9.4038349554       -1.8498564164        8.4403087215
  C         8.5918202599       -0.7323924248        8.6665215321
  C         8.5511736923       -0.1579949352        9.9179844740
  H         7.9814195788        0.7434143226       10.0443945120
  H         7.9416552818       -0.3431784609        7.9079177708
  H         9.5610684439       -2.2833293140        7.4603763703
  H        10.6637174896       -3.3732150512        9.2758881088
  H        10.7549759502       -2.2255377904       11.5203782574
