140

  C         4.4609170276       -1.3337614882       13.9546886208
  C         5.4071576232       -0.5879358157       14.6921214734
  C         6.3889461434        0.1639787709       13.9760473284
  C         7.5154496046        0.8167328085       14.6311649247
  C         8.3926593662        1.5861907064       13.9724102683
  C         5.3251558669       -0.2806226818       16.1683666475
  C         4.3964788262        0.6780006453       16.7631584651
  C         4.4853652442        1.0259676088       18.1005890582
  C         5.5106731579        0.5545944865       18.9211442726
  C         6.4739068963       -0.3197983583       18.3883226717
  C         6.3272203104       -0.7399103656       17.0720055919
  H         7.5546829477        0.7869942627       15.7063682337
  H         9.1532206753        2.1574909094       14.4891009481
  H         3.6171816919        1.0405254753       16.1099357224
  H         3.8006173865        1.8021559627       18.5077467065
  H         5.6227883468        1.0310532733       19.8928586266
  H         7.4347877947       -0.5194962387       18.9890954198
  H         7.0914145919       -1.4981027043       16.7894208222
  C         4.4272378158       -1.2312573215       12.5004212246
  C         3.3863877017       -1.8644076804       11.7779403286
  C         2.2318574456       -2.2887588543       12.4625731595
  C         2.2831747676       -2.5739707684       13.9240972851
  C         3.4146230317       -2.0100804161       14.6254434420
  C         6.4297463554        0.1474120448       12.5179206514
  C         5.4193175462       -0.4823024666       11.7910405022
  C         5.2281207323        0.0264546074       10.3261696344
  C         4.1735356288        0.8422130853        9.9153487239
  C         4.0940932905        1.3334173001        8.5794567415
  C         4.9862911353        0.9515150117        7.5583872053
  C         5.9921868270       -0.0664595569        7.9656019132
  C         6.0644127107       -0.5439126200        9.3353488001
  H         6.7347615349       -1.3187008016        9.6646029027
  H         6.6362953501       -0.4733216092        7.1917404987
  H         4.7893584988        1.2435320169        6.5085501180
  H         3.3481739462        2.1341745939        8.3478755705
  H         3.3706762055        1.0077928881       10.6517550344
  C         7.5043118501        0.8549990583       11.8664238411
  C         8.4406105444        1.5577593200       12.5647457478
  H         9.1508389459        2.2159596401       12.0654687579
  H         7.5370618552        0.8627644156       10.7995442395
  C         3.3604772368       -2.3843147153       16.0980400664
  C         4.2958087692       -3.3346030937       16.5195238638
  C         4.3593414246       -3.7255160382       17.8719688412
  C         3.4395156889       -3.2221491037       18.8262106262
  C         2.5512313337       -2.2223558600       18.3869743998
  C         2.5469412308       -1.8150810975       17.0717057009
  H         1.8402347477       -1.0214473218       16.7152864870
  H         1.9192455230       -1.5944789568       19.0396689645
  H         3.4805933010       -3.3581775988       19.8555145760
  H         5.1822268849       -4.3526096376       18.2252959535
  H         4.9717834388       -3.6609415901       15.7985495305
  C         1.1013158667       -3.1622335779       14.4668392882
  C        -0.0170154113       -3.4598229133       13.7300802859
  C        -0.0674032384       -3.2107271448       12.3736416031
  C         1.0195408899       -2.6716377035       11.7927071046
  H         0.9411021721       -2.5983938841       10.7354479577
  H        -0.9631018516       -3.4073384428       11.7386712631
  H        -0.8944223223       -3.9660617529       14.1873729402
  H         1.0631050753       -3.2423776447       15.5550716487
  C         3.5658695594       -2.2494366862       10.3427595678
  C         4.3849112631       -3.3797976953       10.0864363265
  C         4.4655429011       -3.9301930383        8.8340321922
  C         3.5939593024       -3.5014431982        7.8149109465
  C         2.6880688113       -2.4416616049        8.0745241086
  C         2.6938004230       -1.7685920001        9.2954548639
  H         1.9352889827       -0.9957356669        9.4932201098
  H         1.9185929735       -2.4027450353        7.2939004916
  H         3.4892731900       -3.8591048191        6.7568724651
  H         5.3212762836       -4.5287202429        8.5822372421
  H         4.9383077933       -3.7155657570       10.9624876743
  C        11.6169251297       -1.2337878408       13.9057494776
  C        12.6309696538       -0.5676595266       14.6381638586
  C        13.7103936241        0.0908206532       14.0277284293
  C        14.8583837704        0.6080783786       14.7697308046
  C        15.9041658176        1.1950923848       14.0814437261
  C        12.5068641602       -0.1461529836       16.1008769717
  C        11.8150655706        0.9922951333       16.5082934612
  C        11.8028131175        1.3456273129       17.8726200806
  C        12.6092472665        0.5830585402       18.7978423918
  C        13.1914472634       -0.5884014149       18.3501724148
  C        13.1364721830       -0.9413961633       17.0448283794
  H        14.9412309498        0.6711537367       15.8094448267
  H        16.8418488450        1.6532645453       14.6062428384
  H        11.4630505486        1.7467655416       15.7953449614
  H        11.1020421937        2.0958402942       18.1917427667
  H        12.6037508536        0.9573019546       19.8528468415
  H        13.8348493173       -1.1674471121       19.0258127226
  H        13.7819513493       -1.8435934374       16.6911597489
  C        11.5427431823       -1.1007054327       12.4449917241
  C        10.5271272196       -1.8267675890       11.7875979699
  C         9.4383177858       -2.3841978155       12.5070771914
  C         9.4245098553       -2.3331832405       13.9159214322
  C        10.5311062465       -1.8847909112       14.6655120422
  C        13.7416474472        0.0466707085       12.5640788660
  C        12.5660306113       -0.3120838824       11.8054506571
  C        12.4152188948        0.2208770952       10.4172957065
  C        11.4051623772        1.1362613072       10.0500993261
  C        11.3344741982        1.7225884300        8.7955449585
  C        12.2764448635        1.3808841871        7.8318774240
  C        13.2208816978        0.3708119076        8.0920054636
  C        13.2691640898       -0.1955340868        9.3622298153
  H        14.0859244791       -0.8773391388        9.6059846585
  H        13.7411327788        0.0292473155        7.2964485150
  H        12.3414570574        1.8220061904        6.8563454139
  H        10.6269622170        2.5285090466        8.6304654495
  H        10.6132380243        1.4220246610       10.7605534437
  C        14.8641525473        0.6800748586       11.9395997476
  C        15.9458859516        1.1692687124       12.6722390887
  H        16.7773050658        1.5927456691       12.1514471209
  H        14.8636825615        0.5358653360       10.8721198313
  C        10.5424791608       -2.2112869083       16.1377985260
  C        11.2976535102       -3.3274397100       16.5534069120
  C        11.3322518312       -3.7503067772       17.8909972309
  C        10.5614022902       -3.0646385576       18.8438553658
  C         9.8936341382       -1.8967292849       18.4775987635
  C         9.9188765967       -1.4030554617       17.1607341223
  H         9.4312325167       -0.4602719357       16.9156534545
  H         9.5022822005       -1.2528673091       19.2293726041
  H        10.6170971674       -3.4038611091       19.8966116271
  H        11.8948889956       -4.5945781410       18.1994060493
  H        11.7875301445       -3.9130578401       15.7148002168
  C         8.2382782115       -2.8997923974       14.5388057796
  C         7.2675221356       -3.6037414370       13.8035374353
  C         7.4030196985       -3.7303879439       12.3897079048
  C         8.4599917215       -3.1556463300       11.8079483524
  H         8.5693024886       -3.2758954297       10.7310286417
  H         6.6148388609       -4.1932107812       11.8315137631
  H         6.4285146210       -4.1288530287       14.2625807014
  H         7.9674596353       -2.7844408717       15.6104445807
  C        10.6061505796       -2.0992243392       10.2980293243
  C        11.5291221989       -3.0147565602        9.7594094803
  C        11.5294727728       -3.3241730144        8.3772032074
  C        10.5484575517       -2.6694200047        7.5663133664
  C         9.6449221150       -1.7668900555        8.1096503955
  C         9.6831341690       -1.4659578463        9.4772320088
  H         9.0707116953       -0.8254221556       10.0527105522
  H         8.9032975882       -1.3635662527        7.3774865925
  H        10.5423035024       -2.8799372863        6.4911468149
  H        12.1776905638       -4.0820261948        7.9662495976
  H        12.2995546021       -3.4497416208       10.4547727030
