140

  C         5.1607742398       -0.3350282658       15.8096126477
  C         6.2575979774        0.2872038417       16.4952373349
  C         7.3730378036        0.8532556457       15.8745374508
  C         8.4108513322        1.6046850655       16.6422633830
  C         9.4397277513        2.2331448637       15.9900968537
  C         6.1721587205        0.6852072950       17.9494516383
  C         5.3542606845        1.7922536300       18.2854654320
  C         5.1810891038        2.2684145520       19.6402270575
  C         5.8084946159        1.6262655490       20.7062181218
  C         6.5732119671        0.5018519489       20.3144866816
  C         6.6968506153       -0.0316918702       19.0410565610
  H         8.4633035011        1.6083974644       17.6904731343
  H        10.0852982385        2.8808109239       16.5550428627
  H         4.6983502590        2.3788781215       17.6713030366
  H         4.4544338320        3.0770099175       19.7493035334
  H         5.7849483139        1.9037491052       21.7347636509
  H         7.2058430992       -0.0374604680       21.0095491964
  H         7.2638462552       -0.9646345875       18.7848793167
  C         5.1976894124       -0.3879811867       14.3381615123
  C         4.2015058347       -1.0717678887       13.6676783046
  C         3.0326530871       -1.5517499067       14.2765613076
  C         2.8919172795       -1.4923331132       15.7437518472
  C         4.0141948296       -0.9143133144       16.5103909641
  C         7.3376396513        0.9819385138       14.4077697401
  C         6.2322511933        0.3817321329       13.6675941596
  C         6.2733381701        0.8405186669       12.2606058253
  C         5.4640551333        1.8674829517       11.7972615015
  C         5.6611250173        2.4391470348       10.4933174319
  C         6.6719710542        1.9600312716        9.5543107764
  C         7.4177627745        0.8591730153       10.0297334232
  C         7.2036122933        0.2860863036       11.2810226576
  H         7.8381448586       -0.5133025331       11.6400645670
  H         8.1777765909        0.3372113647        9.3914621777
  H         6.7027832794        2.3488067531        8.5359913899
  H         4.9179016018        3.1791621296       10.1651960678
  H         4.7102190810        2.2614432562       12.4073312046
  C         8.4396313406        1.7224421812       13.8267449743
  C         9.4292828427        2.2878578714       14.6055759411
  H        10.1726625869        2.9488340256       14.1530766191
  H         8.4976778450        1.7458788237       12.7483665758
  C         3.9637799306       -1.3014033070       17.9728684371
  C         4.7561337712       -2.3932002503       18.3813641968
  C         4.7307203629       -2.7607972507       19.7357174256
  C         4.0105773428       -2.0285974208       20.6843728346
  C         3.2158216492       -0.9755403837       20.2643595572
  C         3.2051254987       -0.6030862236       18.9413413637
  H         2.6827545979        0.3254916497       18.6500994712
  H         2.6386043737       -0.4542575048       21.0703545116
  H         4.1301551197       -2.1735584104       21.7715928496
  H         5.5095598455       -3.4303775182       20.0785807484
  H         5.4125387326       -2.8871756646       17.6632829732
  C         1.7204020083       -2.0663503955       16.3902690725
  C         0.9033328200       -2.9317924465       15.6562840634
  C         1.0856134991       -2.9706637415       14.2702534693
  C         2.0051502034       -2.2605979305       13.6242118385
  H         2.0250995502       -2.3607761121       12.5875576631
  H         0.3941807559       -3.5361727798       13.7308416341
  H        -0.0035703225       -3.3400654842       16.0904918092
  H         1.6331445953       -1.9220167394       17.4645912067
  C         4.3595860300       -1.5330912065       12.2495765345
  C         5.5288246836       -2.1745990280       11.8972267675
  C         5.7056764130       -2.6662211837       10.6124602799
  C         4.7770009050       -2.3939672499        9.6008894853
  C         3.5220793030       -1.7385875197        9.9702222822
  C         3.4348799574       -1.2152673758       11.2353045638
  H         2.6415939567       -0.5062829044       11.4928418742
  H         2.9112432774       -1.2615340586        9.1597860439
  H         4.8319818068       -2.9431621514        8.6419053214
  H         6.6446745323       -3.0800952616       10.4099652731
  H         6.2947481909       -2.1888342776       12.6689739126
  C        12.2536614888       -0.1048044168       16.0768386800
  C        13.3242378667        0.4617852759       16.8817116214
  C        14.4827358426        1.0028111026       16.2628952238
  C        15.6464483204        1.5668885032       16.8893585566
  C        16.5976831993        2.2775653441       16.1964215052
  C        13.3100196794        0.8623472004       18.3463102629
  C        12.5692151203        1.9571548146       18.7258042958
  C        12.5798149508        2.3951558172       20.0871745977
  C        13.3609482258        1.7636345776       21.0647110709
  C        14.1465302786        0.6863354440       20.7033134489
  C        14.1605041734        0.3058358945       19.3264694113
  H        15.6971753578        1.4243350140       17.9225741261
  H        17.3516625169        2.7555929304       16.8258954881
  H        11.9166058999        2.3831131783       17.9931233751
  H        11.9115681787        3.2143681155       20.4218554759
  H        13.2791726329        2.0803940152       22.1016060763
  H        14.6925057243        0.1777463968       21.4424612753
  H        14.5959454895       -0.6438462226       19.0882629517
  C        12.3016379408       -0.0757108157       14.6573406041
  C        11.3033635450       -0.7239422535       13.8781062931
  C        10.2992211413       -1.4389756824       14.5685901468
  C        10.1741869928       -1.4304175420       16.0793193319
  C        11.2301315963       -0.8022327810       16.8243514172
  C        14.4845120741        1.0777907038       14.8070675889
  C        13.3880100567        0.6300478073       14.0629098040
  C        13.3868718190        0.9924177504       12.6251896784
  C        12.7149342373        2.1099226616       12.2372323460
  C        12.7770867885        2.5990068921       10.9147846106
  C        13.4695757001        1.9007794241        9.9508139512
  C        14.0981483746        0.7583252125       10.4079627723
  C        14.0894343437        0.2663285912       11.6624348268
  H        14.4274830404       -0.7551987881       11.7991410834
  H        14.6190950715        0.1117432401        9.6688284730
  H        13.4874292821        2.0124388284        8.8502721711
  H        12.1925189690        3.4714678202       10.7255925914
  H        12.2553156353        2.6546660554       13.0396920928
  C        15.5386838391        1.7974098775       14.1540988665
  C        16.6041485819        2.3127140399       14.7878710372
  H        17.4145080160        2.7683595036       14.2479790078
  H        15.5135543488        1.6646312905       13.0658838362
  C        11.4004325974       -1.1236124807       18.2431220410
  C        12.2388313544       -2.1927635669       18.5186679497
  C        12.4783662001       -2.6985879755       19.8249275268
  C        11.7345498684       -2.1343517661       20.8611989560
  C        10.8231726881       -1.0968031288       20.5889096994
  C        10.6940285003       -0.5716035832       19.3110418158
  H        10.1357296677        0.3747913025       19.1224571422
  H        10.2964276611       -0.7936400181       21.4920268619
  H        11.8930010531       -2.4874532452       21.9029608014
  H        13.1949217690       -3.5411253946       19.9565464696
  H        12.7093040794       -2.7396448466       17.6998650967
  C         9.1067915179       -2.1737974218       16.7410068715
  C         8.2900584789       -2.9557263449       15.9772289121
  C         8.2977886934       -2.9112536596       14.5440065634
  C         9.1946118528       -2.1349151723       13.8973456846
  H         9.0224250026       -2.0063676790       12.7913457920
  H         7.5606704830       -3.4029150285       13.9178298775
  H         7.5772316300       -3.6273801615       16.4114291862
  H         9.1148940513       -2.0924716944       17.8730057180
  C        11.4301110347       -1.1057567503       12.4204324129
  C        12.2194546016       -2.2314055302       12.2233436821
  C        12.3564925103       -2.8076650568       10.9175565681
  C        11.6839580055       -2.2392201219        9.8220661405
  C        10.8632764041       -1.1268734638       10.1296558105
  C        10.8017047722       -0.4668230018       11.3337366405
  H        10.2120473098        0.4306699927       11.4506902192
  H        10.2848635405       -0.7787243566        9.2939954001
  H        11.6197322888       -2.8748310207        8.9224093087
  H        13.0350935317       -3.6346098865       10.7552980719
  H        12.7577710967       -2.5783068108       13.0916269981
