140

  C         5.2107862413       -1.2179071133       13.6743882296
  C         6.2270439113       -0.5114263963       14.3508605459
  C         7.3277483796        0.0367186747       13.5676619668
  C         8.4765376205        0.4702848478       14.2320037596
  C         9.5395814224        0.8582722224       13.4845591430
  C         6.2102318687       -0.0944387547       15.7717224595
  C         5.4054793978        0.9602259210       16.2388897151
  C         5.3244445452        1.3071354981       17.5733714089
  C         6.0928307179        0.6193724597       18.5610563722
  C         6.7237798920       -0.5807720819       18.1154265124
  C         6.8305746927       -0.9132485219       16.7719035324
  H         8.5336430750        0.3681644400       15.3091406151
  H        10.4812379527        1.2226302118       13.9329633738
  H         4.8752099483        1.5985838862       15.6406609663
  H         4.7737026405        2.2029427156       17.8602341682
  H         6.1468932003        1.0321307320       19.5582490755
  H         7.1613737977       -1.3569596786       18.8033322139
  H         7.2868443341       -1.9143441515       16.5339158978
  C         5.1356263994       -1.1670054590       12.2255741146
  C         4.1072323208       -1.9149279780       11.5885437988
  C         3.0429728455       -2.5178488715       12.3515297339
  C         3.0753030488       -2.5030382938       13.7364612274
  C         4.2112212614       -1.9266760069       14.3967081744
  C         7.2741326556       -0.0622504125       12.1534534339
  C         6.1134064626       -0.4846164545       11.4837260839
  C         6.0241487733       -0.1941271857       10.0605652494
  C         5.1243991750        0.7829324661        9.5572006134
  C         5.1313585154        1.1399881327        8.2278670581
  C         6.0782457091        0.5253738495        7.3501874263
  C         6.9234535672       -0.5036288617        7.8540168032
  C         6.9011866451       -0.8562295900        9.2011782383
  H         7.5204955412       -1.6749083058        9.5904407211
  H         7.5734617683       -1.0807529179        7.2123755248
  H         6.1373572496        0.8340812936        6.2843300358
  H         4.5686956006        1.9628235607        7.8951136097
  H         4.4231043916        1.2513630844       10.2391226356
  C         8.3350276472        0.5151377688       11.4341454352
  C         9.3967473005        0.9985000143       12.1047352299
  H        10.2019959961        1.4067117996       11.5390951841
  H         8.2614128305        0.5524052877       10.3821261914
  C         4.3380809112       -2.2806454821       15.8333151415
  C         4.9772491947       -3.4680604921       16.1414089223
  C         4.9005871577       -4.0591349682       17.4053410458
  C         4.1532354309       -3.4450844412       18.4497266888
  C         3.6228511252       -2.1524782386       18.1745608098
  C         3.7894796357       -1.5792629824       16.9090421623
  H         3.3427267772       -0.5663871456       16.6385402353
  H         3.0660587327       -1.6237187417       19.0207103596
  H         3.8639833397       -3.9364499269       19.3805242425
  H         5.5854383474       -4.8734647242       17.5590356050
  H         5.6035389857       -3.9089681570       15.3580486289
  C         2.1460010528       -3.2881750754       14.5038734148
  C         1.2572804556       -4.1089097696       13.9100698369
  C         1.1787428879       -4.0958692018       12.4786427633
  C         2.0078391690       -3.3458947138       11.7529865563
  H         1.9586330912       -3.2534655147       10.6803882615
  H         0.3782945660       -4.6732087100       11.8936707360
  H         0.6131769351       -4.8283537915       14.4309554896
  H         2.3107724876       -3.2345965633       15.5538171024
  C         4.1383191774       -2.3825137815       10.1605731155
  C         4.8550292087       -3.5194516506        9.8638750132
  C         4.7971291747       -4.0767620807        8.5103595220
  C         3.8890673517       -3.4964020091        7.5773626040
  C         3.2452026773       -2.3044228126        7.8589639063
  C         3.3589911533       -1.7673319625        9.1497268052
  H         2.8482384394       -0.8342276104        9.4283743264
  H         2.5822352300       -1.8996104071        7.1023501805
  H         3.7088783114       -3.8789590125        6.6070470927
  H         5.3717578394       -4.9561221084        8.3344005939
  H         5.4781732442       -3.9969715232       10.6008711276
  C        12.4417215261       -1.5207980139       13.8175986783
  C        13.5518289858       -0.8896872508       14.4647245923
  C        14.6220079646       -0.3955692425       13.7507142724
  C        15.7343619649        0.0936127945       14.4825387186
  C        16.5959693488        1.0531847052       13.9407668825
  C        13.3999498300       -0.6590302470       15.9342341763
  C        12.5339454925        0.2707695857       16.4417925483
  C        12.4999287791        0.6064863877       17.7817854412
  C        13.3787797286        0.0149301745       18.6807978972
  C        14.2244503681       -1.0577586158       18.2175885233
  C        14.2360990053       -1.3464790292       16.8548672971
  H        15.8235244050       -0.0385363286       15.5853698609
  H        17.3859947354        1.4497878550       14.5301179479
  H        11.7401525939        0.8345146830       15.8777307650
  H        11.7708683211        1.2620801008       18.1919911863
  H        13.2918540538        0.2352445504       19.7352333859
  H        14.7707610085       -1.5775884573       18.9985783830
  H        14.9088492436       -2.1172316773       16.3992125746
  C        12.5115500754       -1.5376290440       12.3758879434
  C        11.4212357513       -2.1520270637       11.6542328838
  C        10.2975539574       -2.6819578595       12.3282353421
  C        10.2508496274       -2.6297501102       13.8567255898
  C        11.3818662727       -2.1676867471       14.5283106735
  C        14.5968406224       -0.2431157776       12.3321472173
  C        13.5334419862       -0.8192195689       11.6500986660
  C        13.4028134408       -0.4558827443       10.2251504592
  C        12.5717000426        0.6360962945        9.9007856848
  C        12.4667502300        1.1324916749        8.6185384680
  C        13.3315140333        0.6940503275        7.6038791124
  C        14.2333515956       -0.3263681659        7.8723576602
  C        14.2620163753       -0.8239480505        9.2107770527
  H        14.9268277068       -1.6470550888        9.3209113007
  H        14.8712924858       -0.6866127243        7.1425693156
  H        13.3346262027        1.1223626477        6.6063556291
  H        11.7975825204        1.9376310833        8.3710947372
  H        11.9387546050        0.9878282138       10.6723120908
  C        15.5677378239        0.6664984235       11.7563484714
  C        16.4627090093        1.3810589137       12.5795796588
  H        17.1233966496        2.1635154104       12.1363406308
  H        15.5272947311        0.8852750317       10.6751416266
  C        11.3633595489       -2.6602280032       15.9358747510
  C        11.9939929851       -3.8765024680       16.3622332406
  C        11.7854382825       -4.3642648740       17.6830062529
  C        10.9435800566       -3.6681690937       18.5799371931
  C        10.3090487732       -2.4787413629       18.1729981738
  C        10.5400096327       -2.0234629943       16.8720484975
  H        10.0391233201       -1.0375044277       16.5944459891
  H         9.5634127597       -2.0357861560       18.8165721571
  H        10.7151176802       -4.1151602460       19.5142362585
  H        12.2791576877       -5.3532079233       17.9500434425
  H        12.5230575729       -4.5269586048       15.6856399636
  C         9.1245744905       -3.1961811328       14.5712249630
  C         8.0767860236       -3.6865594859       13.8516096598
  C         7.9915332446       -3.5449470977       12.4432535010
  C         9.0843220644       -3.1402798268       11.7275392008
  H         9.0381285941       -3.0390787611       10.6582875433
  H         7.1216399596       -3.9295566421       11.9508522777
  H         7.0981341822       -3.8984331173       14.4739741640
  H         9.0898053369       -3.1044514654       15.6310838553
  C        11.4671627886       -2.5436995146       10.1757224774
  C        12.2882919478       -3.5946781194        9.8222201650
  C        12.1227413180       -4.1625376838        8.5342628035
  C        11.3038855928       -3.5852797223        7.5869509027
  C        10.5814822442       -2.4865895386        7.9270268028
  C        10.5657134225       -1.9495839660        9.2211742679
  H        10.0030438096       -1.0642996586        9.4216498162
  H         9.8302163978       -2.1161454290        7.2534255281
  H        11.1523159134       -3.8937561374        6.5523590088
  H        12.9331946414       -4.8297413219        8.1226483072
  H        13.0188117953       -3.9732045802       10.5118748225
