140

  C         8.7975681591        8.4349803937        1.3934734095
  C         7.7458027102        9.0957086876        2.1171412521
  C         6.6496164196        9.6228574590        1.4665824490
  C         5.5632339488       10.2454768324        2.1404446140
  C         4.4720741852       10.7268759869        1.4376493004
  C         7.7929699051        9.3630519092        3.5798534593
  C         8.7469090324       10.2075789121        4.0889904130
  C         8.6182164590       10.7903705721        5.3617358164
  C         7.6154524908       10.3486887432        6.2059245814
  C         6.6953418377        9.4274412835        5.6576520283
  C         6.7015363391        8.9688431572        4.3890298674
  H         5.5787623236       10.3279195296        3.2271666453
  H         3.7067313334       11.2292633774        2.0458991605
  H         9.5614602007       10.4949309273        3.3994844999
  H         9.3558550571       11.4845072259        5.6964935400
  H         7.4125197215       10.7493865401        7.2321614496
  H         5.8104827461        9.1599695682        6.2598901826
  H         5.9859012122        8.2393184250        4.0342034710
  C         8.7487891364        8.4972683587       -0.0559789891
  C         9.7499596739        7.8217994058       -0.8442575172
  C        10.7818409331        7.1492551450       -0.1631522325
  C        10.8010613408        7.0450756303        1.3153180096
  C         9.7370926674        7.6079825017        2.0683526443
  C         6.5933073585        9.6263546309        0.0285652310
  C         7.6935443054        9.1626831582       -0.7108468780
  C         7.7437132747        9.5543559462       -2.2185106574
  C         8.5218137700       10.6393089632       -2.6229466029
  C         8.5607424782       11.1226383936       -3.9211554940
  C         7.8237444185       10.3548752549       -4.9077336920
  C         6.9958432611        9.2714311798       -4.5626543911
  C         6.9558928576        8.8936131157       -3.2043034326
  H         6.4418005767        7.9651490386       -2.9720700404
  H         6.2625874684        8.7082066556       -5.2355824223
  H         7.7315096845       10.7966180132       -5.9063324133
  H         9.1155451535       11.9654390695       -4.2908404354
  H         8.9772580820       11.2492280183       -1.8255305031
  C         5.4787296253       10.1475963826       -0.6315879044
  C         4.3934766747       10.6503342039        0.0015966425
  H         3.5120152731       11.0569762606       -0.5120404723
  H         5.6751346147       10.2380103216       -1.6900829218
  C         9.5078476118        7.1367101028        3.4447701430
  C         8.3994133189        6.2924838179        3.7155560727
  C         8.2044223604        5.6630245757        4.9199073416
  C         9.1616686185        5.7994591397        5.9206160666
  C        10.3066043121        6.6113026479        5.6687568877
  C        10.4247370015        7.2725951788        4.4744546026
  H        11.2149388635        8.0330243018        4.4181982302
  H        11.0617384488        6.8278864476        6.4058905187
  H         8.8890650791        5.3767585701        6.9104191587
  H         7.3069492155        5.0825129736        5.0090048635
  H         7.7801223461        6.0380446365        2.8990082969
  C        11.8124169329        6.2179670548        1.9521734348
  C        12.8332559848        5.6118912563        1.2462082313
  C        12.7941692887        5.6988903739       -0.1650234265
  C        11.8468378606        6.4146543805       -0.8891567775
  H        11.7530575258        6.2280416176       -2.0013960496
  H        13.3612442532        4.9978239969       -0.7188251760
  H        13.5869722282        4.8659691080        1.6139829677
  H        11.7492532561        5.9690511361        2.9748311570
  C         9.6543396946        7.4181539419       -2.3265650312
  C         8.7056140717        6.3624712992       -2.5466718430
  C         8.6587256158        5.7859670871       -3.7801442963
  C         9.4404215976        6.1622952769       -4.8620610755
  C        10.3542338721        7.1778371845       -4.7704892860
  C        10.4389043486        7.8176606430       -3.4512837753
  H        11.2076791660        8.6221782461       -3.3641774100
  H        11.0714620001        7.3590221913       -5.6147164686
  H         9.2628747948        5.6713761596       -5.8307563714
  H         7.8460246983        5.1035492684       -3.9148377033
  H         8.1597331383        6.0107041443       -1.7468492485
  C        15.7490089865        8.3823243079        1.3784991231
  C        14.6359121735        8.9171925637        2.0476543941
  C        13.5265976651        9.4446631475        1.4080407077
  C        12.4052831217       10.1099734769        2.0918149492
  C        11.3964444677       10.8525189311        1.3930276055
  C        14.7379899548        9.1772160685        3.5228320527
  C        15.4987020693       10.2841019052        4.0045251168
  C        15.5852357890       10.5491723211        5.4027214519
  C        14.7211430337        9.8778207052        6.3214317524
  C        13.9170659360        8.7982305794        5.8296488429
  C        13.9651701546        8.4344042533        4.4660312080
  H        12.4132400448        9.9946323047        3.1877279705
  H        10.6029552295       11.2903637954        1.9671266612
  H        15.8857356530       10.9966413432        3.3156035117
  H        16.2184939533       11.4277391002        5.7244501950
  H        14.5766871880       10.1993144470        7.3606906715
  H        13.2894353748        8.2499206275        6.4887064696
  H        13.2743022806        7.6877587327        4.0784389603
  C        15.7373687340        8.2966004381       -0.1302073249
  C        16.7437315372        7.5690855856       -0.8221853348
  C        17.8602461771        7.0840209376       -0.0926839733
  C        17.9124577456        7.1846767005        1.3630819904
  C        16.7984422843        7.7281111901        2.1051097759
  C        13.6107070414        9.5841794406       -0.0405471499
  C        14.6987794996        8.9945351662       -0.7650354652
  C        14.8153852871        9.3102661549       -2.2124119822
  C        15.6996183630       10.3096195506       -2.5900142460
  C        15.7411443054       10.7399523416       -3.9788186736
  C        14.8182380811       10.1800271022       -4.9107767499
  C        13.9851698013        9.1379327554       -4.5279822083
  C        13.9466790628        8.7619820831       -3.1990494249
  H        13.3419797251        7.9462115388       -2.9520048459
  H        13.2288529120        8.8625329452       -5.1937191620
  H        14.7720649133       10.5952580090       -5.9464571103
  H        16.3757418414       11.5650781904       -4.2755865312
  H        16.3180540050       10.8105534556       -1.8642341191
  C        12.6101903780       10.4351705625       -0.7325889394
  C        11.6306349173       11.0702813904       -0.0402554903
  H        10.9098101858       11.7774023543       -0.4499836655
  H        12.6054095617       10.3852536783       -1.8061823154
  C        16.8720636611        7.4091108597        3.5477033246
  C        16.1917876533        6.2335395078        3.9357435713
  C        16.2385045047        5.8436946449        5.2962665180
  C        17.1403816572        6.5075968033        6.1248619120
  C        17.8413253708        7.6581495092        5.7455203152
  C        17.6819820523        8.1774785566        4.4687162363
  H        18.2631817741        9.0481777475        4.2332577105
  H        18.3821339000        8.2037135824        6.4734734187
  H        17.1299688107        6.2930231130        7.1977743626
  H        15.6854885329        5.0226620766        5.7826021854
  H        15.6321318328        5.7042222819        3.1706776204
  C        19.0578537360        6.7734979435        2.1215019172
  C        20.0998998671        6.1319122657        1.4639379396
  C        20.0502018344        5.8744779000        0.0694042279
  C        18.9430881236        6.3482906982       -0.6448096262
  H        18.9194822804        6.2216095267       -1.7579710297
  H        20.8175703591        5.3234992262       -0.4389132900
  H        20.9387109502        5.8110031230        2.0278292047
  H        19.0528651816        6.9207427921        3.1897935521
  C        16.7785715018        7.1660159930       -2.2816750929
  C        15.9752403889        6.0870902755       -2.7527276515
  C        15.9577121930        5.7002551256       -4.1338155659
  C        16.9041856193        6.2421077738       -4.9920267715
  C        17.7443043775        7.3207764860       -4.4873836978
  C        17.6110159551        7.8571822453       -3.1921462786
  H        18.2284633796        8.6152921038       -2.8231062005
  H        18.5371434565        7.7035080777       -5.1017235530
  H        17.2351011599        5.7529765140       -5.9134578702
  H        15.3171957422        4.8816209978       -4.4928625289
  H        15.3798858002        5.4495299166       -2.1103894213
