140

  C        10.9074144787        7.5436276523        1.6332845864
  C         9.8953443962        8.2543013836        2.3552268351
  C         8.7264481332        8.7283996041        1.6938108719
  C         7.6479866671        9.3943452547        2.4181847403
  C         6.6517093768       10.0311540250        1.7199628534
  C         9.9851001899        8.6501214921        3.8156796553
  C        10.9867962311        9.5947824270        4.1868218364
  C        11.2288354165        9.9224805202        5.5216916267
  C        10.4974843045        9.3384650262        6.5210868627
  C         9.5691826691        8.3580012823        6.1993894920
  C         9.4110265726        7.9456685123        4.8364381992
  H         7.7965121292        9.4627481529        3.4915652754
  H         6.0195515974       10.6793269039        2.3435762011
  H        11.4723758031       10.1544286047        3.4327030097
  H        11.9753272571       10.6543482885        5.8168230363
  H        10.4780394417        9.6880867210        7.5578752705
  H         9.0203279448        7.8293216475        6.9953547859
  H         8.6711899747        7.0941940482        4.6351537695
  C        10.8856891413        7.4817802606        0.1980213448
  C        11.9502238366        6.7720798662       -0.4626537943
  C        13.0824538710        6.2637922163        0.1752119497
  C        13.0410295909        6.3101333979        1.6662586675
  C        11.9800064526        6.8466911324        2.3616338756
  C         8.6090502621        8.5584609072        0.2569615718
  C         9.7218787828        8.0135738196       -0.4511746152
  C         9.7554506233        8.3638333571       -1.9293861340
  C        10.4466367721        9.5528456453       -2.3373182902
  C        10.2234344475       10.0426898148       -3.5940308082
  C         9.5058375882        9.2622727723       -4.5556523115
  C         8.9759805067        8.0139848359       -4.2272683139
  C         9.1071511732        7.6000288123       -2.8751600579
  H         8.5078311581        6.7598131666       -2.5097301450
  H         8.2550859284        7.5170449183       -4.9408743073
  H         9.2534635193        9.6756188197       -5.5089627268
  H        10.6892199025       10.9902092303       -3.9601089582
  H        10.9612722316       10.2160039723       -1.6579259881
  C         7.4078810815        9.0747294736       -0.3704866214
  C         6.4929880533        9.8541932594        0.3556569608
  H         5.6654958048       10.3334938722       -0.2517135883
  H         7.2884695046        8.8736687823       -1.4491784653
  C        11.8783556203        6.4002317880        3.7774774331
  C        11.1443752037        5.2877505895        4.1037855459
  C        11.2090863355        4.8046958723        5.4261124577
  C        12.2487180392        5.2527092138        6.2955317003
  C        12.9508104809        6.4273744475        5.9615103066
  C        12.7325962323        7.0217212903        4.7517489172
  H        13.3159254968        7.8623075406        4.4657510201
  H        13.7668787492        6.6668847804        6.6550032725
  H        12.3571355036        4.7152151171        7.2305122393
  H        10.5032324151        4.0564449664        5.7088986116
  H        10.5317664685        4.7270396315        3.4292949794
  C        14.1593497639        5.6700716941        2.3349472673
  C        15.1550422084        5.0337816772        1.5729464943
  C        15.1418679324        4.9797587725        0.1863082165
  C        14.1842931857        5.6728834621       -0.4328679076
  H        14.1897615450        5.7818404111       -1.4989468854
  H        15.9094723357        4.4656283235       -0.3690138752
  H        15.9457143101        4.5487695574        2.1229422013
  H        14.2879139944        5.6380698729        3.4255341472
  C        11.9226977054        6.4181745580       -1.8238215061
  C        11.1026000217        5.2767228934       -2.0820595662
  C        10.7580419044        4.8203739263       -3.3966693206
  C        11.3171705907        5.5104968391       -4.4528391904
  C        12.2353737622        6.6259342856       -4.1908454744
  C        12.4497431243        7.1253095183       -2.9190840865
  H        13.0543556827        8.0089582182       -2.7496337184
  H        12.6413927176        7.1582167936       -5.0801672962
  H        11.1309351887        5.2685084394       -5.5300226922
  H        10.1451791458        3.9186398587       -3.6332528822
  H        10.7473162711        4.7306343055       -1.2109861146
  C        17.9561186291        7.3230783883        1.1452981177
  C        16.9955785247        8.1516769462        1.8030958707
  C        15.9286972252        8.8219322259        1.0999442745
  C        15.0236341704        9.6315998754        1.7870714277
  C        13.9432360329       10.2428947696        1.1802547368
  C        17.1053339023        8.5196316111        3.2502309827
  C        17.9991401137        9.4636989230        3.6992909623
  C        17.9999644367        9.7709052118        5.0069189353
  C        17.1047055175        9.2389617314        5.9177874048
  C        16.2112956562        8.2265547973        5.5128117017
  C        16.2888795425        7.8669259493        4.1774085497
  H        15.1046087192        9.8500766751        2.8502067366
  H        13.2190698381       10.8793447278        1.7465542050
  H        18.7160402487       10.0276732557        3.0672986122
  H        18.6297874324       10.6056251339        5.3312829327
  H        17.0707214461        9.7284516900        6.8556800523
  H        15.4964621236        7.8176195184        6.2240126609
  H        15.6753382069        7.0394723134        3.8039071370
  C        17.8995815141        7.3808865859       -0.3773024695
  C        18.8441788828        6.5417684589       -1.0946801687
  C        19.9654540553        5.9712415076       -0.4332861962
  C        20.1088760678        6.0897763763        1.0083295168
  C        19.0071955875        6.5997853895        1.7539568078
  C        15.7766744312        8.5724692442       -0.3276464720
  C        16.8339263388        7.9642385734       -1.0758318638
  C        16.7912307904        8.2398187169       -2.5282379533
  C        17.6556426825        9.2885581655       -2.9714103308
  C        17.5070121286        9.8256778310       -4.2449822682
  C        16.4795694383        9.3289329027       -5.0873167553
  C        15.6420398819        8.2968775672       -4.7242674355
  C        15.8618290206        7.6802273657       -3.4499980824
  H        15.2473754406        6.7631754009       -3.1913326375
  H        14.9278592113        7.8843260639       -5.3955021471
  H        16.3440507833        9.8712186886       -5.9541628885
  H        18.0775032874       10.7734078995       -4.4801302317
  H        18.4593139319        9.6439845652       -2.3443453833
  C        14.6005958355        9.1559833767       -0.9475394959
  C        13.7610987563        9.9752325450       -0.1922110857
  H        12.8710074937       10.3693328910       -0.7218655406
  H        14.3613192371        9.0717745202       -1.9883562633
  C        19.0359325487        6.3340386362        3.2360496854
  C        18.4858105790        5.1329535408        3.7113272232
  C        18.5709882171        4.7096699970        5.0470551595
  C        19.4520843928        5.4732875521        5.8362343645
  C        20.0512044799        6.6640607921        5.3885264928
  C        19.8305345382        7.0727450331        4.0543698207
  H        20.3606855165        7.9277912152        3.7265761160
  H        20.6788233009        7.2170800356        6.1313714995
  H        19.6908848662        5.1336752884        6.8387786751
  H        18.1451263664        3.7849880406        5.3760962501
  H        17.8409130489        4.6601180093        2.9819515228
  C        21.2723497708        5.6657686289        1.6658415762
  C        22.3148507702        5.0852462310        0.9477520847
  C        22.1226715869        4.9471279086       -0.4306883807
  C        20.9948617729        5.3016836596       -1.0925279207
  H        20.8361208140        5.1350097130       -2.1482913903
  H        22.8381795315        4.4929919482       -1.0655133680
  H        23.2759979837        4.7587079163        1.3962044782
  H        21.4837340147        5.7857448130        2.7104870605
  C        18.7489308133        6.1922531533       -2.6060783439
  C        17.7908856529        5.1890528560       -3.0272274644
  C        17.6624295011        4.8565961522       -4.3883619034
  C        18.6073218519        5.3838325196       -5.3015309189
  C        19.6008971665        6.2643147313       -4.8653144038
  C        19.6542780214        6.6732722535       -3.5595983710
  H        20.3556399212        7.3771348687       -3.1648880884
  H        20.2212608371        6.7757197266       -5.5630779661
  H        18.4554480660        5.1692158988       -6.3538792243
  H        16.7920266154        4.2773110158       -4.7006642160
  H        17.0670462897        4.8137820835       -2.2787447925
