140

  C        11.3587094703        7.1552391439        2.0906841447
  C        10.3204683722        7.8250698469        2.7247721760
  C         9.2715565282        8.4796603739        2.0507532026
  C         8.2656212097        9.2644935964        2.7267692443
  C         7.2341946324        9.9130728415        2.0822919405
  C        10.4853767195        8.2665766323        4.1544023303
  C        11.4713050682        9.1539243831        4.3523885178
  C        11.7377398888        9.6244374438        5.6772776887
  C        10.9756529999        9.1822166243        6.7669231608
  C         9.8476956926        8.3452751063        6.5251273190
  C         9.6540787236        7.8726147621        5.1763041200
  H         8.1677825589        9.2999270860        3.8034949913
  H         6.4029432514       10.3519312153        2.6343276242
  H        12.0975001835        9.5096183958        3.5684572009
  H        12.4488111829       10.4324156663        5.8740680093
  H        11.3586581019        9.3543160663        7.7808950897
  H         9.1995826996        8.0102227409        7.3664329924
  H         8.9115477171        7.0970992246        4.9220529565
  C        11.4673260859        7.1663634562        0.5648317587
  C        12.4781555494        6.4841046280       -0.0718084997
  C        13.5157020532        5.9189463916        0.7438319097
  C        13.4336915284        5.8374093729        2.1653334827
  C        12.3410253588        6.4618252808        2.8634328924
  C         9.3231217406        8.4782054945        0.6340449405
  C        10.4425102049        7.9269406785       -0.0472224343
  C        10.6503365991        8.4281520872       -1.4647759495
  C        11.3876473489        9.5287366996       -1.8773179196
  C        11.4887721068        9.8751458220       -3.1985130437
  C        10.7547822651        9.1506474696       -4.1735410645
  C         9.9840115189        8.0993332677       -3.8365052649
  C         9.9256840115        7.7008761007       -2.4769878888
  H         9.3846725772        6.7725196161       -2.2690944812
  H         9.4382042275        7.5351919868       -4.6285098110
  H        10.9728892711        9.4403885602       -5.1991584360
  H        12.1941668640       10.6576304052       -3.4306927965
  H        11.8057592767       10.1998435328       -1.0588725561
  C         8.1829340995        9.1210429053       -0.0537358704
  C         7.2002096912        9.8493252897        0.6493412742
  H         6.5057381616       10.3819181743        0.0474161589
  H         8.2192526528        9.3726221716       -1.1726354981
  C        12.2291947264        6.1015785478        4.3093558240
  C        11.4640815783        5.0197728509        4.8321987121
  C        11.6838884422        4.4514456039        6.1087995392
  C        12.5269445290        5.0617810073        7.0339369554
  C        13.3414960258        6.1070617052        6.5794340300
  C        13.1346399532        6.6661111719        5.2874826836
  H        13.8676257939        7.4165730873        4.9869692116
  H        14.0807926614        6.5011004599        7.2617063962
  H        12.7707629851        4.6367988792        8.0351677534
  H        11.1506533271        3.5490759507        6.3814141802
  H        10.8991886723        4.3519138442        4.1615636593
  C        14.5842541522        5.2180154784        2.8144162764
  C        15.7163349599        4.9088019846        2.1562114472
  C        15.7902185781        5.0838465870        0.7657587336
  C        14.6769731019        5.4367324795        0.0711565495
  H        14.7316871487        5.5092668322       -1.0251840168
  H        16.6719448362        4.7708643155        0.2198735334
  H        16.5812456238        4.6587488701        2.6795272526
  H        14.4384738284        4.9656764372        3.8706058630
  C        12.5792981926        6.1789552755       -1.5602813267
  C        11.8875189460        5.0551796660       -1.9829697946
  C        11.8401114256        4.6670987542       -3.3259103012
  C        12.5891704924        5.3423920696       -4.3073488676
  C        13.3813388348        6.4066884315       -3.9026716801
  C        13.3780852652        6.8166256068       -2.5268285745
  H        14.0574992886        7.6092400886       -2.2171175210
  H        13.8542976321        7.0871430400       -4.6277062799
  H        12.4665870345        5.0547558524       -5.3950001423
  H        11.2943918560        3.7762781019       -3.5823203620
  H        11.2269114553        4.5122388622       -1.2631648593
  C        18.6744445690        7.2722812974        2.2322960959
  C        17.6328584886        8.0354893808        2.8950736454
  C        16.4995630129        8.4981799450        2.1450876731
  C        15.4297788933        9.2293209982        2.7226877913
  C        14.4805348627        9.7857314356        1.9927497503
  C        17.7273766819        8.4186588152        4.4009155791
  C        18.6827428422        9.3817288922        4.7501328133
  C        18.6645522379        9.9875558239        6.0334204251
  C        17.8103630365        9.5096618806        7.0164862487
  C        16.9183121792        8.4304557018        6.7046768188
  C        16.9078544774        7.9229860533        5.3618987756
  H        15.3396443379        9.3116685994        3.8231749115
  H        13.6640406272       10.3428209617        2.3475851404
  H        19.4581133494        9.6189147230        4.0293084352
  H        19.4709297949       10.7049125465        6.2620615841
  H        17.9108039460        9.8224228345        8.0260366962
  H        16.3369467734        8.0612376480        7.5703081839
  H        16.1271377393        7.1946032403        5.0619523936
  C        18.6655752807        7.2392821190        0.8099507027
  C        19.6783513599        6.4762512313        0.1461283256
  C        20.8241038072        6.0223588947        0.8718328565
  C        20.8702135813        6.1033644348        2.3323672241
  C        19.7294100860        6.6359456265        3.0294952061
  C        16.5367010473        8.4336084326        0.6830678642
  C        17.6759681068        7.8519796290        0.0462295904
  C        17.8176578309        8.1839871979       -1.4017078379
  C        18.6277574967        9.1987698055       -1.9141686096
  C        18.5791047866        9.7236528703       -3.2116258634
  C        17.7028111128        9.1504620818       -4.0889670770
  C        16.9975995735        7.9602128177       -3.7223175745
  C        17.1294502805        7.4512476217       -2.3982512449
  H        16.6221521386        6.4736261635       -2.1548942999
  H        16.4513433645        7.4317685501       -4.5254600129
  H        17.4502318336        9.5676684262       -5.0335596684
  H        19.2248667909       10.5780642058       -3.5230274787
  H        19.3314945450        9.6875301120       -1.2765096947
  C        15.5409467504        9.0778240318       -0.1142767734
  C        14.5360442986        9.7719592448        0.5229789678
  H        13.8365525230       10.3027154875       -0.1081257693
  H        15.6988264600        9.1896195239       -1.1959778474
  C        19.6555388866        6.3004626649        4.5612010935
  C        18.7402903508        5.2629913763        4.9469494328
  C        18.7262407048        4.8495978853        6.3141720605
  C        19.5835536122        5.5111365707        7.2487925507
  C        20.4852130336        6.4421274940        6.8349302163
  C        20.5027857627        6.8585481906        5.5001416749
  H        21.0739968704        7.6995773172        5.1247875922
  H        21.0731666514        7.0118826041        7.5831969671
  H        19.6137914332        5.2162841347        8.2917958633
  H        18.0589365675        3.9952601211        6.5785113556
  H        18.0457997487        4.8172249044        4.2541554875
  C        21.8876223286        5.4742537397        3.0622720067
  C        22.9059831503        4.8534498134        2.4433565642
  C        22.9457935365        4.7923442957        1.0146222738
  C        21.9361794062        5.3351099412        0.2544113542
  H        21.8654368917        5.1497462497       -0.8397252780
  H        23.8089045729        4.3452351002        0.5335217557
  H        23.7553275174        4.4061273303        2.9483649266
  H        21.8102075086        5.4174973942        4.1278634369
  C        19.6138970389        6.0289099431       -1.2905791685
  C        18.7912373206        4.9376265346       -1.5569777552
  C        18.7712720183        4.3816256492       -2.8419481356
  C        19.5167311528        4.8798860261       -3.9086643247
  C        20.4350291848        5.9608116715       -3.5898798042
  C        20.3992704562        6.5057556796       -2.3249422507
  H        21.1314289652        7.2400824498       -2.1263034826
  H        21.0342446176        6.2846595477       -4.4154522106
  H        19.5409722777        4.4448531905       -4.8988444601
  H        18.0589330126        3.5891289257       -3.0548432235
  H        18.2023165318        4.3244970698       -0.8783108647
