140

  C        10.8582902145        7.2683026171        1.0427432345
  C         9.7410871411        7.8597034455        1.7792843548
  C         8.6892099740        8.4310300823        1.0074919890
  C         7.6010101517        9.0208525995        1.7042510697
  C         6.5578314376        9.6893229683        1.1176799352
  C         9.8485362945        8.3484511861        3.1522912799
  C        10.5080019911        9.5517153603        3.4939704645
  C        10.4253308989       10.1394227268        4.8406450629
  C         9.6362690420        9.4742247870        5.8130806993
  C         9.0348309434        8.2832997214        5.4579540329
  C         9.0977118520        7.7660163199        4.1491271819
  H         7.7465491297        9.0697068287        2.7494248581
  H         5.8127055510       10.2326626351        1.6355500528
  H        11.1750456857       10.0869806924        2.8392512693
  H        11.0140026397       10.9586784334        5.0339077515
  H         9.5975224347        9.7004066795        6.8861191288
  H         8.4591560871        7.6716649464        6.1251029164
  H         8.6245289769        6.8286162046        3.9554336662
  C        10.8171904003        7.1908171030       -0.5132818621
  C        11.8157842626        6.3564419130       -1.2187942470
  C        12.9934189329        5.9175844136       -0.5190586223
  C        12.9465404702        6.0577891958        0.9929875510
  C        11.8948788897        6.6113145800        1.6903358346
  C         8.7209368624        8.5614731536       -0.4551200202
  C         9.7276383470        7.8624171510       -1.1897031475
  C         9.5884540930        8.0545527760       -2.7014804853
  C        10.1564480134        9.1808763494       -3.2105222076
  C        10.1257293801        9.4477970100       -4.5611724086
  C         9.3636666312        8.6149184602       -5.4375552821
  C         8.6192922128        7.6221326537       -4.8537052074
  C         8.7292552149        7.2631146734       -3.4773212532
  H         8.1225960148        6.5416483724       -2.9658204580
  H         7.8999486399        7.0443472240       -5.3643820258
  H         9.1583330969        8.8889290647       -6.4599068421
  H        10.6594699108       10.3104226427       -5.0384228565
  H        10.6631702093        9.9398662531       -2.6092694700
  C         7.6122950669        9.2054432626       -1.0705164258
  C         6.5646915638        9.8240123133       -0.3443099857
  H         5.8572013940       10.3728906292       -0.9612917215
  H         7.6486341295        9.1203944129       -2.1060426422
  C        11.8295903780        6.2113520792        3.1445015947
  C        11.0667027790        5.1107977818        3.5410887089
  C        11.1299996602        4.7107658810        4.8797582215
  C        11.9831596436        5.4475063765        5.8211701621
  C        12.7010031934        6.5895315005        5.3942295807
  C        12.6753039427        6.8607811802        4.0237605565
  H        13.3571337721        7.6551179671        3.6645928452
  H        13.3411523067        7.1592724250        6.0513253247
  H        11.9950042260        5.2060210848        6.9014680503
  H        10.5804966984        3.8408184620        5.2184889243
  H        10.4316067149        4.6021905209        2.8334741013
  C        14.0118370599        5.3560377898        1.7433234376
  C        15.1304504001        4.8974295709        1.1044023134
  C        15.2168037961        4.9351658091       -0.2914645901
  C        14.1418735636        5.3384072546       -1.0569577827
  H        14.1334210027        5.1295463846       -2.1075883086
  H        16.0256650065        4.5307454755       -0.8378051094
  H        15.8305570283        4.2752967409        1.6785360407
  H        13.8318217377        5.3066161896        2.7769134860
  C        11.6867692378        5.9279501816       -2.6149963747
  C        11.0423898901        4.7213936239       -2.9686597646
  C        11.0765832343        4.2308206119       -4.2953299587
  C        11.8365016110        4.9073972675       -5.2824299176
  C        12.4950824622        6.0830261073       -4.9240079419
  C        12.4291078161        6.5698666836       -3.6488884000
  H        12.9996722976        7.4645511270       -3.4495419095
  H        13.0741349749        6.6011351019       -5.6725792540
  H        11.8927847433        4.3819456395       -6.3143895554
  H        10.4827853372        3.3432021390       -4.5057789156
  H        10.5720912009        4.2043951144       -2.1648546787
  C        18.1083518500        7.2377712925        0.7413034947
  C        17.1050296558        7.9751360676        1.4005141200
  C        16.0794714703        8.6739759484        0.6790366331
  C        15.0014513633        9.3031617322        1.4140085269
  C        13.9646634182        9.7963335751        0.6489375162
  C        17.1597213480        8.2622803416        2.8724179519
  C        18.1158483767        9.1588662881        3.2802290744
  C        18.1496039478        9.4895611642        4.5855122092
  C        17.1626894467        9.0782024837        5.5027073433
  C        16.1347565270        8.2970917347        5.0388146594
  C        16.2201079079        7.7563176825        3.7678809476
  H        14.9147223289        9.2116337782        2.4839519051
  H        13.2018397544       10.1413951530        1.3365793332
  H        18.9277571954        9.5548331745        2.6466117963
  H        19.0471349707       10.0107408105        4.9080662616
  H        17.1280673578        9.5142371291        6.5075631173
  H        15.3291554031        7.9709902735        5.6817131834
  H        15.4635629817        7.0167150565        3.4340485131
  C        18.0268073925        7.1769889840       -0.7026390993
  C        19.0257814136        6.3456083747       -1.3182020874
  C        20.1678348092        5.9104459624       -0.6140980122
  C        20.2150497878        6.0025481508        0.8153814281
  C        19.0937289667        6.5327617436        1.4804468128
  C        16.0578884616        8.6805267107       -0.7620232837
  C        17.0880195912        8.0149271097       -1.4183553847
  C        17.0582619478        8.2519207096       -2.9066720736
  C        17.7348040514        9.3407698473       -3.4784396612
  C        17.6437307889        9.6798233616       -4.8067311994
  C        16.7001364941        9.0118204936       -5.6711761178
  C        15.9115210915        8.0141659326       -5.1072892330
  C        16.2073710861        7.5199483978       -3.7984759864
  H        15.6435331419        6.6896170468       -3.4873435747
  H        15.1548264845        7.5700878010       -5.7324355671
  H        16.5540916296        9.2608440745       -6.7021725811
  H        18.2469594211       10.4768442496       -5.2017495865
  H        18.3777212831        9.9189403772       -2.7937491787
  C        15.0588847482        9.4924365674       -1.4490340369
  C        13.9177558061        9.8617366506       -0.8009331713
  H        13.0852733841       10.3511032535       -1.3525858609
  H        15.0758190560        9.6515730245       -2.5303160141
  C        18.9160826009        6.1364171855        2.9339481620
  C        17.8508553277        5.3623936633        3.3894376504
  C        17.6978590966        4.8440699803        4.6897844999
  C        18.7589561459        5.0926148368        5.5821599706
  C        19.8146196682        5.9640549728        5.2304930857
  C        19.9349735290        6.3983876377        3.9105258721
  H        20.8092525061        6.9458844669        3.6580887529
  H        20.6245429799        6.1835099944        5.9197387342
  H        18.9237102057        4.6018309462        6.5473148569
  H        16.8459983293        4.2220212035        5.0124689069
  H        17.1121983486        5.0783386539        2.6394422013
  C        21.4266374440        5.5024760652        1.3892248052
  C        22.4487871717        4.8730930124        0.6752880115
  C        22.2909796236        4.6481134021       -0.6974326716
  C        21.1346830765        5.1079277562       -1.2877024757
  H        20.9198557124        4.7560232167       -2.2868325268
  H        22.9020154246        3.9863494863       -1.2520628198
  H        23.3474394225        4.4806420645        1.1806496176
  H        21.5442873391        5.6226216352        2.4412266172
  C        18.9389084684        5.8710282313       -2.6912231501
  C        18.0580266188        4.7868780861       -3.0477256254
  C        17.8114875447        4.5673093098       -4.4170657186
  C        18.3026449917        5.4158928980       -5.3807152763
  C        19.2311734903        6.3911510475       -5.0069961312
  C        19.6156504116        6.5493825628       -3.6713171076
  H        20.2892657854        7.3245914036       -3.4033072035
  H        19.6286317944        7.1594173424       -5.6835618751
  H        18.0564019678        5.1761895433       -6.4120985746
  H        17.1177157238        3.7897096752       -4.6843898758
  H        17.6907464283        4.2264959200       -2.2186364873
