140

  C        12.5072666821        6.9733329120        2.5523443802
  C        11.5579138703        7.8009450240        3.2585231339
  C        10.4920432674        8.3299540595        2.4832362486
  C         9.3731664920        8.8531303557        3.2664912677
  C         8.2462244057        9.2298423127        2.5761715901
  C        11.6497752039        8.2070764157        4.7316941368
  C        12.5708741761        9.2392530714        5.0330485286
  C        12.7573848164        9.5796192342        6.3853654352
  C        11.8469268624        9.1538634658        7.3214694482
  C        10.8868172403        8.1689555129        6.9751082326
  C        10.8472500149        7.6724732084        5.7191438246
  H         9.3976129420        8.7127012967        4.3497505081
  H         7.4005303472        9.5873537811        3.1654454923
  H        13.1486413943        9.6516789373        4.2529657281
  H        13.4801273473       10.3219489741        6.6692979636
  H        11.9242891049        9.4208068104        8.3308263019
  H        10.1838589821        7.8712336068        7.7513071762
  H        10.0931353825        6.9379910898        5.5228433216
  C        12.5391512896        7.0171291186        1.0921725116
  C        13.5120896975        6.2784125802        0.4079282237
  C        14.6122088786        5.6686633690        1.1210982426
  C        14.5675115406        5.6743865973        2.5881429277
  C        13.4628230001        6.1847740487        3.2508696570
  C        10.5159058771        8.3837220720        1.0818103555
  C        11.5756225755        7.7668729890        0.3120870173
  C        11.6957251893        8.1702820587       -1.1227503303
  C        12.6434771297        9.1519603560       -1.4433620873
  C        12.6798383439        9.7479543915       -2.7124807967
  C        11.8012403544        9.2124617024       -3.7106155222
  C        10.9521918391        8.1399827396       -3.3840021481
  C        10.9028508723        7.5920899265       -2.1218099736
  H        10.1363727309        6.8656004585       -1.8691689789
  H        10.2069463990        7.6837298811       -4.1351958953
  H        11.9492862042        9.4210305370       -4.8037232772
  H        13.4940755227       10.4338610908       -2.9136471586
  H        13.2290800397        9.5099989410       -0.5627756459
  C         9.3758016682        8.9688471161        0.4351997155
  C         8.3318610386        9.4807001949        1.1312405465
  H         7.4829358445        9.9956188851        0.6190837475
  H         9.3579753776        9.1270142285       -0.6363353323
  C        13.3663252406        5.9626063606        4.7227481152
  C        12.4664409972        4.9332674068        5.1551338227
  C        12.5512849734        4.5636906642        6.5121644134
  C        13.5480790698        5.1005014806        7.4218527602
  C        14.2738944696        6.2172145754        6.9818399856
  C        14.2028052490        6.6383611544        5.6208197115
  H        14.8378225746        7.4414552553        5.2392247917
  H        14.8996440504        6.7906647093        7.7289988951
  H        13.6542840508        4.6754408267        8.4349785183
  H        11.9357584937        3.7002339901        6.8835657956
  H        11.7286706668        4.5691910323        4.4384660369
  C        15.8106146970        5.0411760949        3.2022452789
  C        16.9411480150        4.6597880307        2.4316201157
  C        16.7824002613        4.5017087422        1.0672782885
  C        15.6246870086        4.9269316197        0.4005234169
  H        15.4023738455        4.6175330778       -0.6122381287
  H        17.6151845721        4.1678006110        0.4661302407
  H        17.7704997888        4.2679080700        3.0185355472
  H        15.8382729912        5.2521707893        4.2425702786
  C        13.4590306941        5.9246162761       -1.0044159088
  C        12.6195577333        4.8546994797       -1.3517937158
  C        12.6856334127        4.3741384960       -2.6599603642
  C        13.5801120721        4.9364429622       -3.5977980547
  C        14.3786366319        6.0488710245       -3.2307921089
  C        14.3302458652        6.4984010095       -1.8980126199
  H        14.8404930894        7.4004466907       -1.5891301667
  H        14.9977605069        6.6382699940       -4.0083148291
  H        13.6548798626        4.5582685323       -4.6195985110
  H        12.0339648454        3.5014054206       -2.9580489902
  H        11.9957139429        4.3705878890       -0.6179671653
  C        19.8203493798        7.0363471498        2.6652374251
  C        18.7941479830        7.6830201200        3.3290948206
  C        17.6606397669        8.1463537034        2.5860587300
  C        16.4736790216        8.6152291832        3.1977114938
  C        15.5461880671        9.2833216880        2.3917708608
  C        18.8175674073        8.1434979401        4.7693352383
  C        19.6252534430        9.2217153560        5.1205318726
  C        19.6910117378        9.7610485831        6.3791409813
  C        18.8527390898        9.2153923176        7.3237146680
  C        18.2117656475        8.0141385101        7.0762553978
  C        18.1326341150        7.4870621490        5.7742151760
  H        16.3097125379        8.5733753381        4.2921086279
  H        14.6202355624        9.5166188257        2.8820488581
  H        20.2309825958        9.6224720576        4.3465883265
  H        20.2362074482       10.6450526103        6.5379405474
  H        18.7368317265        9.7308599040        8.2861417410
  H        17.7028170789        7.4742770917        7.9142532818
  H        17.5394195398        6.5969692147        5.5872830385
  C        19.8791924922        7.0131249745        1.1423471500
  C        20.9203811764        6.2482531052        0.4674048854
  C        21.9033299203        5.5835174920        1.2334550122
  C        21.7742998634        5.5551448289        2.6815621319
  C        20.7482844609        6.2014529265        3.3130186707
  C        17.7600682930        8.2618677665        1.1628497093
  C        18.8810697526        7.7783881842        0.4736207552
  C        18.9185416237        8.0606410871       -0.9984232483
  C        19.7045602475        9.0289092109       -1.6114230886
  C        19.5388446331        9.3010698604       -2.9647149218
  C        18.5826473118        8.6041458067       -3.7352819239
  C        17.8385121762        7.5820207232       -3.0999950461
  C        17.9862222809        7.2551104784       -1.7791516889
  H        17.4688742338        6.5357657442       -1.1821860458
  H        17.1568864322        7.0033912984       -3.6784033056
  H        18.5577350771        8.8788713319       -4.7796997366
  H        20.0160670843       10.1169926891       -3.4993974573
  H        20.3992488697        9.5605395244       -0.9846519293
  C        16.8710954892        9.1239044559        0.4147046354
  C        15.7322617253        9.6015926591        1.0361219001
  H        15.0656940627       10.2977100956        0.5046407380
  H        17.0145249365        9.1314342335       -0.6891761065
  C        20.6366615728        5.8850715779        4.8109747377
  C        19.9338032671        4.6956772196        5.1399897561
  C        20.0339347933        4.1695261612        6.4191686594
  C        20.6808330870        4.9784949717        7.4419467822
  C        21.2964132928        6.2112991942        7.1151092893
  C        21.3386343176        6.6239108478        5.7540719244
  H        21.7069792537        7.5701650262        5.4628338385
  H        21.7950199150        6.6711068782        7.9323894527
  H        20.8072759367        4.5517812325        8.4526446075
  H        19.5504144075        3.2189902370        6.5846178362
  H        19.5091866010        4.1596350614        4.2970208706
  C        22.7955533784        4.8657058514        3.3973592686
  C        23.8417528812        4.3161699113        2.7237631900
  C        23.9417983947        4.2937309595        1.3029443888
  C        23.0093484184        4.9608685631        0.6165745801
  H        22.9461609849        4.9811832676       -0.5055244109
  H        24.8306715747        3.8205230946        0.9013720721
  H        24.6074269950        3.8629364382        3.3457806262
  H        22.8674623859        4.7887075160        4.5075599500
  C        20.9856786558        6.0698907570       -1.0674785735
  C        20.2963631259        4.9791732160       -1.5076545625
  C        20.3367170867        4.6291357929       -2.8630220308
  C        21.2563304782        5.1990339686       -3.7526410353
  C        21.9804263528        6.3108600148       -3.3033202130
  C        21.9198718730        6.6704853825       -1.9224739001
  H        22.5321296361        7.4732800576       -1.4797568450
  H        22.7149285652        6.8614295095       -3.8743554141
  H        21.3091506896        4.8179878136       -4.7327501669
  H        19.8656382163        3.6982391294       -3.1454212507
  H        19.7803538145        4.3942803772       -0.7624186329
