140

  C        10.8299048493        6.9838000011        1.1068595437
  C         9.9242621338        7.7799086952        1.8579914188
  C         8.7137378204        8.2777712462        1.2629911446
  C         7.6213871674        8.9271361193        2.0529110266
  C         6.5643715316        9.4692653464        1.3490679350
  C         9.9811653216        8.1674897643        3.3366635069
  C        10.6703135299        9.4077366511        3.6966603534
  C        10.6101136802        9.8556042610        4.9857410720
  C         9.7629890613        9.1945023418        5.9343969141
  C         9.1181497029        8.0305665406        5.5679635105
  C         9.1949163570        7.4889081479        4.3110786857
  H         7.7140546509        8.8733357645        3.1406845283
  H         5.7824828642        9.8193220527        2.0200202035
  H        11.3309297575        9.9418751988        2.9221757700
  H        11.1431285693       10.7894606026        5.3541739958
  H         9.4426079579        9.5874630547        6.9129689125
  H         8.4609284953        7.5903742945        6.2650717754
  H         8.9081187885        6.4445090144        4.0793257087
  C        10.6636419022        6.9087729148       -0.3870007032
  C        11.5622011693        6.1468999839       -1.1628028757
  C        12.7567467472        5.6773825241       -0.5941651375
  C        12.8913813596        5.7222436842        0.8655197112
  C        11.8761878260        6.1943152921        1.6782935834
  C         8.5541340104        8.3181718774       -0.1294799130
  C         9.5832062578        7.7493178685       -0.9090221289
  C         9.4131190425        8.2504797938       -2.4012355594
  C         9.9939626963        9.4452964313       -2.8696587964
  C         9.9723913774        9.6568133363       -4.2402340452
  C         9.3276105594        8.8143164036       -5.1192511376
  C         8.6605193078        7.6244794531       -4.6125192041
  C         8.8162001466        7.3538491254       -3.2586639195
  H         8.4415329874        6.4632665028       -2.8280813984
  H         8.0564302012        7.0719753290       -5.2920593158
  H         9.3736812389        8.8996804815       -6.1700780259
  H        10.5440970390       10.5172464598       -4.5556859988
  H        10.5743041731       10.1184383702       -2.2862728199
  C         7.4780248459        8.9864335245       -0.7842670849
  C         6.4592487244        9.5789047693       -0.0435170749
  H         5.5444863828       10.0021277097       -0.4377481123
  H         7.3368458156        8.9601171295       -1.8344425661
  C        11.9771898025        5.9971424243        3.2107763847
  C        11.0998393079        4.9857168318        3.7005111502
  C        11.2386734736        4.4415386152        4.9983387329
  C        12.1039254420        5.0504443481        5.8961640434
  C        12.9641793864        6.0486658859        5.4165305430
  C        12.9922496641        6.4376120086        4.0829934478
  H        13.7675851903        7.0896402711        3.7430385655
  H        13.6731678580        6.3547993895        6.1947855320
  H        12.2396607386        4.7024534071        6.8974230948
  H        10.6502862940        3.5802213393        5.3235401872
  H        10.3525955417        4.4937037238        3.0426286382
  C        14.1529732931        5.1530743347        1.4365683906
  C        15.1066886904        4.5263482070        0.6777273893
  C        14.9557272581        4.5472982843       -0.7147877643
  C        13.8168233680        5.0310251614       -1.3162112410
  H        13.6532027253        4.9923371889       -2.3659877651
  H        15.8055201770        4.1740518799       -1.3598758349
  H        16.0238627065        4.0873636057        1.1505616541
  H        14.2048694952        5.1593994089        2.5180257445
  C        11.5001050299        5.9686954691       -2.6639286271
  C        10.9094884427        4.8590040966       -3.2728045574
  C        11.1016188839        4.5668943580       -4.6149175996
  C        12.0038088986        5.3444748106       -5.3944793034
  C        12.5176143581        6.5008663998       -4.8427041187
  C        12.2904486088        6.8433332394       -3.5066903427
  H        12.7743861650        7.7841795201       -3.0948113973
  H        13.2359956785        7.1283850002       -5.3508156998
  H        12.1401329250        5.1094740048       -6.3946328515
  H        10.6681961763        3.7148049260       -5.1219385063
  H        10.3316703790        4.2588992242       -2.5655196407
  C        17.9412251269        7.2045307530        0.6863884360
  C        16.8625851122        7.8139566211        1.4228360336
  C        15.7039541176        8.2805466409        0.7697818783
  C        14.6237809174        8.8742404264        1.4359934516
  C        13.4910389533        9.3474514946        0.8536873231
  C        16.9179960671        8.1562265598        2.8996157190
  C        17.5628283229        9.3840318317        3.2133336925
  C        17.8085306344        9.8147840151        4.5100849970
  C        17.1990199895        9.1952318818        5.6552866752
  C        16.4226670929        8.0063733017        5.3630855372
  C        16.4536072629        7.4766397462        4.0531438642
  H        14.6807352923        8.9551825085        2.4984437433
  H        12.8119224258        9.8545961754        1.5016022793
  H        18.0260202039        9.9985209983        2.4408530087
  H        18.3906984818       10.7457626779        4.5918485941
  H        17.4491126089        9.5827061371        6.6576801776
  H        15.8439702671        7.3615287631        6.0179846138
  H        16.0233624259        6.5048115361        3.9190016205
  C        17.8914610041        7.1297281082       -0.8173181925
  C        18.9601688230        6.4348172100       -1.5299772525
  C        20.0835118008        5.8873872996       -0.8467810240
  C        20.1970648555        6.0553804589        0.6650210872
  C        19.0773540804        6.5898221354        1.3418738148
  C        15.6158936666        8.1872204473       -0.6704228557
  C        16.7587464222        7.7352932691       -1.4399241797
  C        16.7761023217        8.1063275518       -2.9126673572
  C        17.7073712813        9.1692772636       -3.1417634472
  C        17.7358773461        9.7978683946       -4.3617865959
  C        16.7297762833        9.4800688122       -5.3167820165
  C        15.8251945621        8.4644317349       -5.0670172738
  C        15.9358116771        7.6965959637       -3.9071290387
  H        15.1909056615        6.8945753168       -3.6600304169
  H        15.0308190613        8.1255748655       -5.7132916010
  H        16.7973858261        9.8786842641       -6.3525370013
  H        18.4662613352       10.6275245274       -4.5357905812
  H        18.3680518644        9.5526057909       -2.3603141727
  C        14.4175190652        8.7187547829       -1.2958613312
  C        13.3741527560        9.3021099504       -0.5937975236
  H        12.6133581770        9.8885007012       -1.0947484563
  H        14.4573166045        8.7203694300       -2.3671013352
  C        19.1405180936        6.4218631771        2.8398194727
  C        18.4758974886        5.2629706590        3.3683907193
  C        18.8002544425        4.8558363365        4.6879164455
  C        19.5473852916        5.6277054006        5.5484651185
  C        20.1592620037        6.7794534360        5.0600469490
  C        19.9640037841        7.1455321056        3.7435315680
  H        20.3800254882        8.0501677080        3.3790551935
  H        20.7870475896        7.4133321107        5.6762478318
  H        19.7042461013        5.2848966308        6.5704955834
  H        18.3232562546        3.9740795861        5.1066774837
  H        17.9266611090        4.5967082761        2.6553605989
  C        21.3669124598        5.3797892817        1.2447479236
  C        22.2323001455        4.6338613909        0.4515464391
  C        22.0419955948        4.4477972944       -0.9528178030
  C        21.0604404863        5.0942424900       -1.5922372704
  H        21.0016805628        5.0134919325       -2.6589019874
  H        22.6717905344        3.7593033790       -1.5012651512
  H        22.9054277538        3.9283786099        0.8869283608
  H        21.4771016843        5.3809256557        2.3270421035
  C        18.9369617440        6.1866331562       -3.0449526563
  C        18.3936740730        5.0140506856       -3.5145471296
  C        18.4090636837        4.6890677441       -4.8968149647
  C        18.9675791229        5.5416800206       -5.8434494876
  C        19.7049889066        6.6182689751       -5.3399376550
  C        19.7135919714        6.9054691197       -3.9590400244
  H        20.3954667969        7.6721571333       -3.4852614375
  H        20.4524582062        7.1508082280       -5.8634502279
  H        18.9469093989        5.2612285938       -6.9170161947
  H        17.8021297051        3.7910354231       -5.1681974988
  H        17.7260438388        4.4100597230       -2.8491129306
