140

  C         3.5553348141        0.0340777437       14.5817371574
  C         4.6240501284        0.7715493585       15.2078076121
  C         5.7282450616        1.2488236952       14.4766746082
  C         6.8555819628        1.8387636181       15.1244159104
  C         7.7992645415        2.5329278300       14.4408242178
  C         4.5682113276        1.1084300205       16.7346192060
  C         3.6335068723        2.0113894161       17.1997498889
  C         3.7335774159        2.4369640709       18.4944083963
  C         4.7186685672        1.9963581184       19.3756720640
  C         5.6731170890        1.0839995111       18.8708603971
  C         5.6136796710        0.6781288587       17.5562688016
  H         6.9977834319        1.6871633744       16.1860445954
  H         8.6566157327        2.9789564308       14.9839918348
  H         2.7462436590        2.2309084540       16.6188162623
  H         2.9632688776        3.0898595614       18.8880672466
  H         4.7071928086        2.3781933283       20.4109694888
  H         6.3755703029        0.5970577637       19.5456555198
  H         6.2840223705       -0.0518781695       17.2601604516
  C         3.5877709775       -0.0152179407       13.0855357813
  C         2.5416017343       -0.7071012358       12.4353712288
  C         1.4482254056       -1.2684920597       13.2313898506
  C         1.4847175822       -1.3355121490       14.6444098527
  C         2.6389496068       -0.7377491630       15.3146405831
  C         5.6386885361        1.3042640925       13.0218413411
  C         4.6302992934        0.7041607399       12.3636370088
  C         4.4615968590        1.0080043247       10.9407622232
  C         3.8147135495        2.2049445084       10.6512025626
  C         3.7945846960        2.8329549140        9.4207890333
  C         4.5884149869        2.2955797318        8.3026780498
  C         5.1495143083        0.9821613090        8.5544596742
  C         5.0747726137        0.3856416421        9.8811815395
  H         5.6784919680       -0.5146642472       10.0866961907
  H         5.5942087885        0.4414226339        7.7164635522
  H         4.6605638727        2.8201999469        7.3634316969
  H         3.1624414509        3.7124622984        9.3041869788
  H         3.3765922317        2.6517492715       11.5324252731
  C         6.6759767052        2.0145572553       12.3250066319
  C         7.6963647535        2.6263447928       13.0099982200
  H         8.5318016335        3.0786496186       12.4581986130
  H         6.6825988291        1.8915330610       11.2408207930
  C         2.6248017631       -0.9694245967       16.7807002448
  C         3.6197651371       -1.7197830752       17.4245046770
  C         3.4837385041       -2.0143641450       18.8323769379
  C         2.4395766515       -1.5091370068       19.6558742109
  C         1.5630831459       -0.6494803713       18.9575682714
  C         1.6383087364       -0.4248181222       17.5540906632
  H         0.8373273272        0.1800637074       17.0788882260
  H         0.6743972548       -0.3007486474       19.5037669881
  H         2.3028254968       -1.7434035069       20.7206163049
  H         4.3163380342       -2.5835876099       19.2716667765
  H         4.4436068383       -2.1057545915       16.8171666417
  C         0.4234823696       -2.0380246201       15.2692625576
  C        -0.6037922870       -2.6417549546       14.5800102496
  C        -0.7126717256       -2.4423694221       13.1728498374
  C         0.2772176453       -1.7720814200       12.5156508177
  H         0.1550494123       -1.6167053356       11.4573651243
  H        -1.5434835139       -2.8911896852       12.6365096620
  H        -1.3385143554       -3.3102483196       15.0739833253
  H         0.5375761808       -2.2586736086       16.3783309602
  C         2.5782381978       -1.0008271017       10.9880028903
  C         3.2222841815       -2.1398115842       10.5691734495
  C         3.2772581628       -2.4816619301        9.1706523600
  C         2.6867108696       -1.6599691036        8.2114562177
  C         2.0050190303       -0.5390414845        8.6338211929
  C         1.9684475385       -0.1859308499        9.9902227824
  H         1.4307667923        0.6799104065       10.2206150292
  H         1.6430318402        0.1860549944        7.8375003820
  H         2.9030140409       -1.8668425788        7.1506946345
  H         3.8527340817       -3.3293053370        8.8617354152
  H         3.7780006939       -2.6700793413       11.3536965993
  C        10.8145244391       -0.0729658159       14.4434550685
  C        11.8581602665        0.6597263909       15.0373554600
  C        12.8433419853        1.2986994566       14.2585864539
  C        13.8822218202        2.0670529465       14.9518119055
  C        14.8491196516        2.6427574521       14.2060569620
  C        11.7664903730        1.1253597706       16.4890920996
  C        10.7259084422        2.0842392136       16.7869319144
  C        10.5234278321        2.6601399940       17.9957987204
  C        11.4308021108        2.3323198653       19.0001050859
  C        12.4248362331        1.3785475391       18.8368442676
  C        12.5651646431        0.7739233413       17.5766720497
  H        13.8990157578        2.1974691193       15.9993953952
  H        15.5767576338        3.2233743155       14.6888084654
  H        10.0138091392        2.2562482202       16.0049003904
  H         9.7860689769        3.4713400902       18.0647995600
  H        11.2965950708        2.8706433070       19.9074268424
  H        13.0691388619        1.0253631679       19.6627941320
  H        13.3317982791        0.0198165015       17.3967631428
  C        10.8033842245       -0.0983031144       12.9077112171
  C         9.6430182787       -0.6777177441       12.2787164551
  C         8.5911244317       -1.1895405621       13.0396510554
  C         8.5897366584       -1.2457143968       14.5107853327
  C         9.7878255208       -0.7871566884       15.1684975988
  C        12.8073147098        1.1606588064       12.8483412302
  C        11.7495387769        0.6191964434       12.1280497519
  C        11.6512283910        1.0497459139       10.6702130277
  C        10.7751075820        2.0876476998       10.3004903865
  C        10.9067572642        2.6430843691        9.0063922702
  C        11.7886978107        2.1149025206        8.0363417428
  C        12.6319358564        1.0397168787        8.3765107752
  C        12.4690274845        0.4843884800        9.6335943869
  H        13.0191444733       -0.3892092508       10.0127251997
  H        13.2990303255        0.6529925830        7.6568138549
  H        11.9772009120        2.6818583026        7.0857814374
  H        10.2425163737        3.4688949041        8.7882516480
  H        10.0368045911        2.5541369289       11.0250507890
  C        13.8997150721        1.8072294978       12.1007726783
  C        14.8553157974        2.5008310609       12.7962768324
  H        15.5528417271        3.0525312760       12.1824827238
  H        13.8994844805        1.6861747357       11.0167801367
  C         9.8765435869       -1.0767336302       16.7104898411
  C        10.8667182474       -1.9782232513       17.2243860122
  C        10.9512866912       -2.3596338495       18.5561134199
  C        10.0346211592       -1.7902432763       19.4414969582
  C         8.9803982423       -0.9961083031       18.9299942354
  C         8.9090875597       -0.6142602488       17.6026002787
  H         8.1745190878        0.1254475230       17.3608035353
  H         8.1353851066       -0.7023823428       19.5858269046
  H        10.0913102800       -2.0678487579       20.4926849178
  H        11.6392030995       -3.1106722783       18.8990017634
  H        11.5464175109       -2.5410981909       16.5670803575
  C         7.5045200024       -1.9137255621       15.1309075064
  C         6.4296786403       -2.4395750721       14.4929266186
  C         6.2775637710       -2.2417777233       13.0831251230
  C         7.3849794815       -1.7320488735       12.3773685489
  H         7.3736184181       -1.8254123015       11.2660087493
  H         5.4212889572       -2.6413713387       12.5366571762
  H         5.6359199752       -2.9660359273       14.9820790376
  H         7.5526603415       -1.9931948702       16.2206508257
  C         9.7471229869       -1.0762133818       10.7965140947
  C        10.5002951323       -2.2079115854       10.4599633742
  C        10.4850333999       -2.7263811385        9.1361465906
  C         9.5638262048       -2.3063956915        8.1989892107
  C         8.7243912362       -1.2644534266        8.5633069376
  C         8.8093771681       -0.6499091980        9.8161070922
  H         8.0974382964        0.1318270038       10.1295830216
  H         8.0183963960       -0.9970130412        7.8191611330
  H         9.4415066087       -2.7606151428        7.1969543179
  H        11.1672060581       -3.5444715409        8.8917103905
  H        11.1550160872       -2.6105743598       11.2469721863
