140

  C        10.7359748215        7.4269402579        0.9829712370
  C         9.6337333108        8.0529775133        1.6535833473
  C         8.5452015001        8.5759128798        0.9723173012
  C         7.4819497990        9.1993279141        1.6737592345
  C         6.5748791684        9.9699341451        1.0314967192
  C         9.6763706042        8.2079453010        3.1211079609
  C        10.1541371741        9.4713137803        3.5888913698
  C        10.1813530886        9.7739109010        4.9505077188
  C         9.7756920619        8.8673913660        5.8699468355
  C         9.2618859383        7.5615150428        5.4476605410
  C         9.1632767232        7.2981323392        4.0610638368
  H         7.4932768517        9.0282257634        2.7267282725
  H         5.7085307448       10.4211004859        1.5554889267
  H        10.5330707866       10.2091736308        2.8656978967
  H        10.6929637350       10.6239202726        5.3000622649
  H         9.7327189309        9.1042947075        6.8953953289
  H         8.9552087098        6.8504041955        6.2759016808
  H         8.5639717077        6.4688229986        3.7503821121
  C        10.6799802378        7.3705013853       -0.5247837922
  C        11.7527313058        6.7208264352       -1.1503533623
  C        12.8981877420        6.2797920588       -0.4731716695
  C        12.8052341467        6.3123066632        0.9872709434
  C        11.7090702915        6.7530612022        1.6541107437
  C         8.5579910614        8.6369484970       -0.4430699349
  C         9.5443347894        8.0304315775       -1.1539531470
  C         9.6460195216        8.3734897898       -2.6302627967
  C        10.6367405988        9.2746629173       -3.0299114922
  C        10.7690438323        9.7497589820       -4.3248020557
  C         9.8786827024        9.2704569573       -5.3019119012
  C         8.8952732956        8.3434504887       -4.8811693547
  C         8.7821782188        7.8369073283       -3.6084583905
  H         8.1430919717        6.9324373529       -3.4882766451
  H         8.3716153958        7.9567820564       -5.7004385632
  H         9.9955921512        9.4961561448       -6.4314257542
  H        11.5677297732       10.4656186075       -4.5254599306
  H        11.3177288285        9.6882372154       -2.2766088061
  C         7.4395537689        9.3909132610       -1.0985342004
  C         6.5876265375       10.1448947106       -0.4110849461
  H         5.9199988596       10.7941068369       -0.8645693445
  H         7.4224651699        9.3820899558       -2.1753096304
  C        11.7606550055        6.2568146078        3.0778212724
  C        11.1011245444        5.0638393695        3.3725959137
  C        11.3842749647        4.3374134443        4.4915567094
  C        12.1546174529        4.9136432877        5.5552355777
  C        12.6253847644        6.1899348304        5.3304742142
  C        12.5241227884        6.8062347526        4.0987537116
  H        12.9146971027        7.8481793019        3.9802539268
  H        13.1027900683        6.7241160253        6.1645110939
  H        12.2697028318        4.4249876926        6.5393244413
  H        10.9091533317        3.3643941278        4.6032618832
  H        10.5602703525        4.5840811992        2.5284859719
  C        13.9277448583        5.6804863156        1.7476398775
  C        14.9670272410        5.2383320651        1.0519001551
  C        15.0375151853        5.1852345271       -0.3222437344
  C        14.0457694174        5.6424555131       -1.0548365486
  H        14.1896075535        5.5716794140       -2.1157254605
  H        15.8785784151        4.8594248681       -0.8981245557
  H        15.8797592062        4.9783595648        1.6027659686
  H        14.0220540421        5.7502970680        2.8171629579
  C        11.7442845598        6.3775838057       -2.5898403976
  C        10.8835316960        5.2944438983       -2.8631426607
  C        10.9937133737        4.6274124211       -4.0904977419
  C        11.8393845412        5.0520874824       -5.0711642742
  C        12.5936081658        6.2823004513       -4.8555553932
  C        12.5473614672        6.8546976436       -3.5803644986
  H        13.1075191005        7.7723423419       -3.3142523407
  H        13.2356846973        6.6710763090       -5.5963367663
  H        11.7635388828        4.5079746146       -5.9761765435
  H        10.3951097373        3.7745622873       -4.3199541113
  H        10.3183061264        4.9170526301       -2.0373120665
  C        17.7926895038        7.3645595352        1.5138083678
  C        16.7506439868        8.1220586340        2.1326564086
  C        15.6286058504        8.6303481386        1.3839648261
  C        14.4596290211        9.1912909693        1.9340950259
  C        13.4308805933        9.6193345629        1.1403884400
  C        16.7766677625        8.4384860159        3.6526238894
  C        17.6339000228        9.3941488504        4.2402284818
  C        17.4719856712        9.6904635221        5.6097725222
  C        16.6104922277        8.9477440841        6.4032077635
  C        15.7582550042        8.0539572946        5.7608866065
  C        15.7865932119        7.8231860254        4.4415092240
  H        14.2901212934        9.0706246787        3.0103452707
  H        12.5199516870        9.9386034689        1.6610081767
  H        18.4865725544        9.8852186055        3.6787233267
  H        18.1268589068       10.4481179827        6.0712081738
  H        16.4361465778        9.1334550683        7.4969682702
  H        15.1243243986        7.3989751329        6.3430510042
  H        15.1953947437        7.0319549154        4.0176924979
  C        17.8887816168        7.4014985966        0.0056958369
  C        19.0370256666        6.7652294015       -0.6338470516
  C        19.9938224458        6.1105214969        0.1390180308
  C        19.9127972060        6.1168469302        1.5448965956
  C        18.7818343262        6.6413198528        2.2631701003
  C        15.7333178844        8.5317921544       -0.1113922628
  C        16.8795196157        8.1033918394       -0.7635487136
  C        17.0344573406        8.3656642620       -2.2070247143
  C        18.0036356742        9.2915929103       -2.5391943538
  C        18.2571125781        9.7371140926       -3.8249774666
  C        17.3541704444        9.3430601529       -4.8167207954
  C        16.3174236067        8.4911014852       -4.5083439829
  C        16.0883200755        8.0108451376       -3.2429960399
  H        15.2582663361        7.4261406307       -2.9897530122
  H        15.6711684202        8.0226919781       -5.2550518038
  H        17.5312367397        9.7897390333       -5.8156119195
  H        19.1231125428       10.4251883103       -3.9786672112
  H        18.7293370497        9.4727204988       -1.7551147438
  C        14.7493009906        9.2529180633       -0.8605878692
  C        13.6244973460        9.8092389109       -0.2609933296
  H        12.7898825840       10.2691087951       -0.8251563891
  H        14.8400937732        9.4731450099       -1.9229226795
  C        18.7473399957        6.2703768626        3.6823854020
  C        17.7364494591        5.4768047820        4.3120838044
  C        17.9136327577        4.9880902472        5.6200808737
  C        19.0140117843        5.3797800041        6.4272019070
  C        19.9530998089        6.3001946705        5.8789956124
  C        19.7659972172        6.7552732607        4.5258638616
  H        20.5559427869        7.3875220085        4.1268222595
  H        20.7379461576        6.7581455729        6.5149500139
  H        19.1686606795        4.9852388164        7.4351713142
  H        17.3149941333        4.1533172309        5.9972053423
  H        16.8101996436        5.1574479476        3.8070406434
  C        20.9937876829        5.4383111957        2.2210772925
  C        21.9867633206        4.7568740928        1.5959896475
  C        22.0871222228        4.9092942559        0.1846290793
  C        21.0872489426        5.5223842393       -0.5035385565
  H        21.1771873983        5.4667109063       -1.5341539336
  H        23.0499299779        4.7006313988       -0.3070679535
  H        22.7862668961        4.4005010486        2.1812158941
  H        20.9035875526        5.3160282705        3.3038481844
  C        19.0404139998        6.3084910659       -2.1559238827
  C        18.3180492860        5.1711290125       -2.5239087921
  C        18.3636657550        4.7599032897       -3.8551461271
  C        19.0188841230        5.4512425378       -4.7928439190
  C        19.5808906309        6.6800779880       -4.5255950876
  C        19.6766553267        7.0678647778       -3.2198263755
  H        20.1697450031        7.9708285370       -2.8539722937
  H        19.9314612553        7.3345768998       -5.3555618757
  H        19.1188802455        5.0955721176       -5.8239760380
  H        17.8960372656        3.8404085515       -4.1743569903
  H        17.7660898857        4.5174918627       -1.8430680820
