140

  C        14.4644895186       -0.0328755252        0.7297831606
  C        15.6744771092        0.4828155975        1.3137777377
  C        16.7608160507        0.8745007127        0.5319097651
  C        18.0309913960        1.3568396790        1.0474282062
  C        18.9168074067        2.1226443137        0.2520738165
  C        15.7106363505        1.0183813086        2.7143542108
  C        14.8461344676        2.0042326155        3.1664254177
  C        14.8917978622        2.4632420866        4.5102854636
  C        15.8426878897        1.9308897386        5.4033593061
  C        16.7908932364        0.9232743285        4.9761177326
  C        16.6692416294        0.4837860589        3.6228235305
  H        18.2971607960        1.2681074780        2.0721925065
  H        19.7356210560        2.7289360893        0.6972814553
  H        14.0561550528        2.4180549751        2.5701315164
  H        14.3074900055        3.3285370373        4.7467244530
  H        15.7437368062        2.1186859290        6.4778236791
  H        17.5068605884        0.4421660105        5.6429521816
  H        17.2711250215       -0.3274952635        3.2564624789
  C        14.3871600636       -0.0528649031       -0.7343079512
  C        13.3205902978       -0.7897079968       -1.3477104250
  C        12.2596697715       -1.2747386961       -0.5851574135
  C        12.3868452636       -1.2650490255        0.8576343343
  C        13.5143424327       -0.7182659574        1.5276949682
  C        16.5843141889        0.9883313233       -0.9248775629
  C        15.3785306055        0.6247727483       -1.4897250615
  C        15.2641895184        1.0520765418       -2.9523511299
  C        14.3119920296        2.0381060100       -3.4461192026
  C        14.2375978215        2.4889362584       -4.7759186027
  C        15.0298632683        1.9121056272       -5.7563678956
  C        15.9340146947        0.9213059717       -5.3283328799
  C        15.9756164084        0.4552816045       -3.9648247574
  H        16.6400003976       -0.3357346201       -3.6993048162
  H        16.4325046109        0.3461777724       -6.0996803099
  H        14.9975243962        2.3424079706       -6.7352245533
  H        13.6113655339        3.3503822986       -4.9989259603
  H        13.6646659430        2.4624649142       -2.6893200518
  C        17.5481049328        1.7151890181       -1.6542036764
  C        18.6796269182        2.3195637851       -1.1385514704
  H        19.3084198804        2.8547299398       -1.8283768508
  H        17.3062466369        1.8822749372       -2.6814214950
  C        13.7283544409       -1.0588937852        2.9707157840
  C        14.6558015385       -2.0537144883        3.2527921194
  C        14.7956800264       -2.4619472585        4.5852523676
  C        13.9615709606       -2.0319483621        5.5529723849
  C        12.9842421033       -1.0284415563        5.3162758991
  C        12.9039207538       -0.4950627788        3.9454251802
  H        12.0990478562        0.2201741880        3.6999151710
  H        12.4192643302       -0.6465464932        6.2044992311
  H        13.9620668073       -2.3956739690        6.5206166821
  H        15.5982125930       -3.2348386862        4.7963325895
  H        15.3483619471       -2.4245815806        2.4946678609
  C        11.5210036161       -2.1084326933        1.6163704367
  C        10.4624992096       -2.7792385693        1.0984039942
  C        10.2806489963       -2.8115106981       -0.3259746667
  C        11.1459105323       -2.0927109043       -1.1379782539
  H        11.0371033003       -2.1634558747       -2.2604753840
  H         9.4849167251       -3.4771356507       -0.6718757531
  H         9.8784800214       -3.4363211894        1.6654775437
  H        11.7262745452       -2.2160388903        2.6864348625
  C        13.4441729216       -1.0883012586       -2.7843782697
  C        14.4019375275       -2.0909297242       -3.0510214117
  C        14.4605424744       -2.7016637883       -4.3244647489
  C        13.5730310310       -2.3351354362       -5.3113359929
  C        12.5949773515       -1.3639272245       -5.0647482582
  C        12.5165799200       -0.7449816475       -3.8012499419
  H        11.7369683275        0.0029675502       -3.6081032074
  H        12.0128198083       -0.9249586804       -5.8287578981
  H        13.5397217294       -2.8733186408       -6.2752364347
  H        15.1968345909       -3.5186450126       -4.4858036316
  H        15.1164364814       -2.3255764304       -2.2750252138
  C        11.2151726924        7.1750386226        0.8970984007
  C        10.1360902042        7.7689015354        1.6649338070
  C         8.9304347041        8.1735017411        0.9710832279
  C         7.8916208674        8.8465778370        1.6854108455
  C         6.6953617016        9.1633327913        1.1592755336
  C        10.2271346079        8.1791613774        3.2038267518
  C        11.1262712006        9.1504440789        3.6402494777
  C        11.0773332254        9.6139690260        4.9421445495
  C        10.2454330462        9.0508559960        5.8771899030
  C         9.3356691866        8.0698069835        5.4541988096
  C         9.3395184385        7.6079178424        4.1882345544
  H         8.1320352728        9.1497354643        2.7357932347
  H         6.0657372497        9.6462227088        1.8751897710
  H        11.7567603733        9.7399229683        2.9847763728
  H        11.7609277043       10.3855618358        5.2915369453
  H        10.3041964612        9.3906423527        6.9124081595
  H         8.6459950732        7.6509173080        6.1967123923
  H         8.7095305407        6.8344652149        3.8269326344
  C        11.1469542540        7.2558868927       -0.6247023850
  C        12.1890986239        6.6710522809       -1.3754614502
  C        13.2963355241        6.0899952822       -0.7156628461
  C        13.2487731084        5.8625114002        0.7053263179
  C        12.2381979319        6.4546769541        1.5141067516
  C         8.8060985595        8.0646588501       -0.4361848522
  C         9.9007048018        7.7227304155       -1.2239542797
  C         9.8398325629        7.9303898349       -2.6975988771
  C        10.3456033410        9.1673240321       -3.1289474936
  C        10.0283034548        9.6068157483       -4.4456758081
  C         9.4284693294        8.6870385143       -5.3193000404
  C         9.0399072806        7.4288711349       -4.9227069674
  C         9.1707498731        7.0714383148       -3.6084688671
  H         8.7582234717        6.1420216614       -3.2943204638
  H         8.5947315987        6.7336209758       -5.6791887713
  H         9.1445537619        9.0617940381       -6.2688952832
  H        10.4024669687       10.6357918979       -4.6402324016
  H        10.8517778476        9.8647430568       -2.4978852271
  C         7.5666928528        8.5133994841       -0.9696225496
  C         6.4994723593        8.9718674974       -0.2392126824
  H         5.5492694269        9.2327368127       -0.7947977785
  H         7.4440329092        8.4995283451       -2.1067825459
  C        12.2131117595        6.0441495218        2.9540269178
  C        11.2652504848        5.0479973773        3.2476280703
  C        11.1016188289        4.5548556779        4.5633956114
  C        12.1144196355        4.8143266117        5.5161087072
  C        12.9592825048        5.8814118629        5.2540300731
  C        13.1112549983        6.4602781072        3.9670592584
  H        13.8858125800        7.1881294231        3.7100291629
  H        13.7451712321        6.1432605523        5.9778670410
  H        12.0466343678        4.2882015857        6.4875117033
  H        10.4341460791        3.7005972531        4.7569785978
  H        10.5762949648        4.8104679237        2.4201488267
  C        14.1760145022        4.9737316248        1.3132514514
  C        15.1442726674        4.3974708268        0.4610293676
  C        15.2605979197        4.6503607884       -0.9352647450
  C        14.3314321679        5.5154969056       -1.4884306017
  H        14.3974848718        5.4779730213       -2.5187676337
  H        15.9987267638        4.0671895177       -1.4831488601
  H        15.9533441239        3.7035732853        0.8636198620
  H        14.0464177164        4.7676476421        2.3202179665
  C        12.0765511578        6.3110314032       -2.8557359247
  C        11.4499143651        5.1112873789       -3.2303122594
  C        11.3930516668        4.5949110093       -4.5338168915
  C        11.9914816247        5.3529517843       -5.5479262095
  C        12.7146544154        6.5709957392       -5.1805749387
  C        12.7000028194        7.0944504071       -3.8894505857
  H        13.0188264128        8.1234940460       -3.5638554742
  H        13.3614793169        6.9920398648       -5.9619394068
  H        12.2041527707        4.8648796519       -6.5218139283
  H        11.0166511216        3.5405829128       -4.7049650786
  H        11.1340591287        4.4880869372       -2.3508028969
