140

  C         3.6242125601       -0.2030491578       14.3627500199
  C         4.6017250033        0.5822399138       15.0434573886
  C         5.7159300393        1.1039135001       14.2836321763
  C         6.8324365171        1.8395658133       14.9260375268
  C         7.7907106576        2.5385578725       14.1461299660
  C         4.5239752311        0.9833333111       16.5089991370
  C         3.6567463552        2.0425724770       16.8544422486
  C         3.7431785896        2.7729323202       18.0002931678
  C         4.7787330018        2.4645838279       18.9681750573
  C         5.6193425947        1.3512007624       18.6462675578
  C         5.4609970371        0.6057880195       17.4543845858
  H         6.9336183695        1.7585059412       15.9822667673
  H         8.6137309905        2.9935123039       14.6944382639
  H         2.8380302307        2.3394898956       16.2221489538
  H         2.9839200217        3.5160857735       18.2499517824
  H         5.0120973951        3.0739579144       19.8518564727
  H         6.4315667578        1.0960172511       19.3178642416
  H         6.1253653740       -0.2163560373       17.3330797362
  C         3.5795800563       -0.2191637849       12.8896661593
  C         2.6548606779       -0.9997948559       12.2020860290
  C         1.5334268438       -1.5718535710       12.8997583085
  C         1.5442291826       -1.5465042156       14.3688171759
  C         2.5799311804       -0.8985787724       15.0610231965
  C         5.5587477527        1.2358429531       12.9182457826
  C         4.5074296965        0.5811333553       12.1753716047
  C         4.4162514088        0.8125443744       10.7237731877
  C         3.6058385944        1.8952825258       10.3124475167
  C         3.7293142459        2.3610126567        9.0362606367
  C         4.6010360700        1.7424869753        8.0849615568
  C         5.4717547088        0.7413600116        8.5055189832
  C         5.3345958217        0.1873516282        9.8671876818
  H         6.0326828942       -0.5565993806       10.1890119194
  H         6.2599635892        0.5058451572        7.7656260497
  H         4.5721530298        2.2117028585        7.0619411080
  H         3.0618990009        3.1439999129        8.6998373285
  H         3.0225349932        2.4023803092       11.0453861954
  C         6.6055418647        1.9646023041       12.1534173103
  C         7.6975275660        2.5523354430       12.7314812993
  H         8.5031115526        2.9688093331       12.0873144710
  H         6.6344267239        2.0085468133       11.0950987921
  C         2.8130586096       -1.1898223035       16.5456356250
  C         3.7161878862       -2.2030094650       16.9913469699
  C         3.9964826725       -2.4081070100       18.3721830982
  C         3.2766968883       -1.6150681029       19.3234221926
  C         2.4809304879       -0.5796790950       18.8751428082
  C         2.1716924331       -0.3723555547       17.4967378247
  H         1.4364954788        0.3657885066       17.2259219538
  H         1.9118991223        0.0007929101       19.5918180444
  H         3.5080340513       -1.6669921921       20.3704278357
  H         4.6925683968       -3.1878681196       18.6334730839
  H         4.2361360846       -2.7612683109       16.2136895934
  C         0.4421246607       -2.2113997264       14.9863965203
  C        -0.5422052579       -2.9289493369       14.3417517890
  C        -0.5700982540       -2.9931748548       12.9423050209
  C         0.3721007998       -2.1740704930       12.2733072431
  H         0.3919881213       -2.0789459546       11.2199708538
  H        -1.3403191413       -3.6081768122       12.3971303608
  H        -1.3528461921       -3.3370387966       14.9133503290
  H         0.5137013356       -2.2969015601       16.0946770056
  C         2.6519750620       -1.1531034936       10.6936044007
  C         3.3179488757       -2.2868109496       10.1151325610
  C         3.1778134973       -2.5821395024        8.7523510252
  C         2.0311081976       -2.0227959068        8.0814421345
  C         1.4066131394       -0.8997892087        8.6475404845
  C         1.6617406787       -0.5292204832        9.9560556384
  H         0.9864220786        0.2160526526       10.4415567715
  H         0.6343566951       -0.3131426982        8.0638405185
  H         1.8190151270       -2.2126795011        7.0710567255
  H         3.8309896587       -3.3019074424        8.3127739271
  H         3.9640889355       -2.8633407764       10.7161035321
  C        -0.0449168747        7.1715306309       14.6048427160
  C        -1.0881682950        7.7912766556       15.4460851964
  C        -2.2125453141        8.2792514505       14.7287417306
  C        -3.3156346461        8.9982086779       15.3844666557
  C        -4.2609920059        9.6873347214       14.6043274923
  C        -0.7962711049        8.2917886245       16.8497501116
  C         0.1622913665        9.2700620236       17.0702293613
  C         0.4701783105        9.6915929336       18.3718391060
  C        -0.2536502845        9.1877938161       19.4820354560
  C        -1.3336258797        8.3393463476       19.2291798153
  C        -1.6733599861        8.0055846316       17.9169035752
  H        -3.3328045281        9.0363349240       16.4610033659
  H        -5.0831018498       10.0911662694       15.1659038508
  H         0.8774495116        9.6066993093       16.3026294019
  H         1.3372818844       10.3699439610       18.5097462885
  H         0.0195719710        9.4721035430       20.5145841721
  H        -1.9694434328        7.9467175393       20.0074748496
  H        -2.5444113620        7.3563108986       17.7718878923
  C        -0.0779274701        7.1091329192       13.1098157626
  C         0.9072169001        6.4685908447       12.2939369251
  C         1.9736298612        5.9031975308       13.0220131878
  C         2.1043181122        5.9359533278       14.4891435849
  C         1.0359423167        6.4905432770       15.2416330262
  C        -2.2098363994        8.2975521984       13.2372190021
  C        -1.1272086060        7.7880957540       12.4873843582
  C        -1.1509696297        7.9966629808       10.9611054251
  C        -0.4257318620        9.0521289314       10.4546374066
  C        -0.5900167317        9.5361400887        9.1618833150
  C        -1.5196677648        8.9195175580        8.3055731150
  C        -2.1368392923        7.7392333890        8.7892905443
  C        -1.9858332035        7.2489565400       10.0645136840
  H        -2.6201542898        6.4507165687       10.3271658111
  H        -2.7983033661        7.1238610173        8.0970538585
  H        -1.6355534188        9.2364470616        7.2860418334
  H        -0.1892173820       10.4571043593        8.8107443803
  H         0.3310912121        9.5610322138       11.0357585617
  C        -3.3176076831        8.9328112276       12.5412497633
  C        -4.2690970419        9.6519604860       13.2077717197
  H        -5.0798833370       10.2120839410       12.7338963127
  H        -3.3031458306        9.0434598946       11.4674921048
  C         1.0176976151        6.1577270826       16.7120418912
  C        -0.0485723582        5.4022944334       17.1861722817
  C        -0.1259053506        4.9537354083       18.5196067682
  C         0.8917131875        5.2942153688       19.4372141045
  C         1.9850027233        6.0869467077       19.0005951760
  C         1.9978403590        6.5458420441       17.6881574220
  H         2.8613591904        7.1578992452       17.4017244321
  H         2.7951983198        6.4570150883       19.6178737632
  H         0.9097248716        4.8380087260       20.4241511802
  H        -0.9965049807        4.3713506229       18.8822064307
  H        -0.8826690319        5.1095086818       16.5301592374
  C         3.2071110557        5.2730868789       15.0997326038
  C         4.1755709259        4.6254739417       14.3399646612
  C         4.0778840221        4.6177264260       12.9033058059
  C         2.9667895122        5.1544198959       12.2726764081
  H         2.7862941109        4.9575851683       11.2217599925
  H         4.7546793094        3.9993732869       12.3094599087
  H         4.9868041065        4.0698523935       14.8169950237
  H         3.3838710648        5.2856472451       16.1632390751
  C         0.7746708764        6.1531801525       10.9064270007
  C        -0.1258063531        5.1207109310       10.6197037907
  C        -0.1537836823        4.5220977007        9.3761673046
  C         0.6393041782        4.9823120349        8.3430550613
  C         1.5312301194        6.0575206112        8.6027202326
  C         1.6634688284        6.5905669301        9.9133620024
  H         2.3845587736        7.3483397879       10.2262577524
  H         2.1277417007        6.5521448369        7.8200902068
  H         0.4997756150        4.6247426867        7.3001878379
  H        -0.8294029844        3.7309282214        9.1651151418
  H        -0.8715052026        4.7267053742       11.3380311451
