140

  C        14.3474877167       -0.0076322497        1.0805607282
  C        15.3934216125        0.7573796182        1.6862728170
  C        16.3556700704        1.4944876098        0.9592877521
  C        17.4112363354        2.2079927835        1.6139605687
  C        18.2984211783        2.9417566724        0.8389381264
  C        15.3677744052        0.9265888700        3.1458530928
  C        14.8864745070        2.1231744860        3.6302479852
  C        15.2157642946        2.5857862943        4.9363369407
  C        15.9799072464        1.7329600835        5.8037754420
  C        16.3587571492        0.5081264723        5.3276271475
  C        16.1563737425        0.1044778716        4.0216715587
  H        17.5078734839        2.1262632939        2.6805565717
  H        19.1245958954        3.4682349929        1.3751630178
  H        14.5059208618        2.7538736091        2.8437303091
  H        14.9549617315        3.5572637129        5.2284295200
  H        16.1208103375        2.0634526806        6.8288310571
  H        16.9970647223       -0.2259342473        5.7987722787
  H        16.6474143835       -0.8059955314        3.7193380317
  C        14.2539041099       -0.0105479310       -0.3747435587
  C        13.1890778674       -0.7473351637       -1.0197828486
  C        12.1456072935       -1.3509386084       -0.2349105737
  C        12.3432240386       -1.4673410827        1.1906994053
  C        13.4356425086       -0.8352152403        1.8423420106
  C        16.2433045732        1.4692276006       -0.4807329074
  C        15.2004279998        0.7813230716       -1.1237419390
  C        15.0891906093        1.1336244690       -2.6069004231
  C        14.2064706148        2.1796354386       -3.0886513863
  C        14.2036190887        2.6437720536       -4.4346866845
  C        15.1150709030        2.0270484350       -5.3665512984
  C        15.9174680471        0.9933881700       -4.9540330334
  C        15.9174476540        0.5829180981       -3.6096024138
  H        16.5951555150       -0.1519611045       -3.2243576218
  H        16.7099342453        0.5617863135       -5.5699018598
  H        15.1498882981        2.3057497037       -6.4069275788
  H        13.4486128098        3.3958972059       -4.7240777673
  H        13.5360565097        2.7283152701       -2.4623463179
  C        17.1968596629        2.2056293899       -1.2247620548
  C        18.0878446811        2.9678698668       -0.5507327948
  H        18.7492102302        3.5611131586       -1.1346286164
  H        17.2276376608        2.2098653978       -2.2975926845
  C        13.5690304646       -1.1543879059        3.3132266018
  C        14.3869290059       -2.1800588343        3.7667287398
  C        14.3906581047       -2.6096195437        5.1481581112
  C        13.4655756949       -1.9779073595        5.9755448903
  C        12.6307694691       -0.9009312056        5.5089515719
  C        12.8349887110       -0.4248101390        4.2958731152
  H        12.2659058366        0.4419979396        3.9825563697
  H        11.9085481039       -0.3263351826        6.1418977148
  H        13.1903979796       -2.3150321399        7.0369698734
  H        15.0006596698       -3.4271370809        5.4441504259
  H        15.0040029953       -2.7531195766        3.0416243566
  C        11.2147069671       -2.0120472166        1.9637428749
  C        10.0906159272       -2.5699936495        1.3535409735
  C         9.9998326408       -2.5964026601       -0.0543817883
  C        10.9805706158       -2.0131307659       -0.7942259769
  H        10.7629406690       -1.9996407101       -1.8868652629
  H         9.0168147690       -2.9596567198       -0.5022510158
  H         9.3261580095       -3.1284578494        1.8745146839
  H        11.2427633718       -2.0499820776        3.0629187265
  C        13.2204569267       -1.1435088577       -2.4650532011
  C        14.1155711460       -2.1157240640       -2.9745503094
  C        13.9466583673       -2.6625904606       -4.2372022199
  C        12.9193216993       -2.1261690218       -5.0895991849
  C        12.1314936158       -1.0683116686       -4.6113761596
  C        12.2315186802       -0.5828388953       -3.3190037569
  H        11.5309925827        0.1555916358       -2.9689016491
  H        11.4113563186       -0.6597346162       -5.2925140349
  H        12.7303094457       -2.5495721914       -6.0811095888
  H        14.7109477890       -3.3122730693       -4.6037444835
  H        14.9490494327       -2.4113514939       -2.3222795896
  C        10.7031079056        7.2114750731        1.2987644414
  C         9.6813531588        7.9784968877        1.9513491403
  C         8.6852035824        8.7039358163        1.2443199890
  C         7.6844146292        9.4510690325        1.8956699815
  C         6.6480091612        9.9472741819        1.2308293121
  C         9.8490655862        8.4635234893        3.3191641324
  C        10.6899581980        9.6127496937        3.6167887258
  C        10.7744170291       10.1249269539        4.8940815050
  C        10.0161117049        9.5393334584        5.8992516224
  C         9.1688149300        8.3806612924        5.6601534312
  C         9.0960584082        7.8746067631        4.3838583174
  H         7.8473520023        9.6134898726        2.9671123553
  H         5.8886397920       10.4877744648        1.8799148468
  H        11.2897436544        9.9394854628        2.8084786185
  H        11.3689314114       11.0493794956        5.1828867143
  H        10.0744326509        9.9011903790        6.9676265740
  H         8.5683634020        7.9619100310        6.4767477104
  H         8.5451597109        6.8896287908        4.3745276008
  C        10.6684792341        7.1521591421       -0.2212437889
  C        11.6516413096        6.4090352384       -0.8970347451
  C        12.7368128378        5.8904356242       -0.1420023878
  C        12.7616439374        5.9934386045        1.2864982033
  C        11.6620734250        6.4895432435        2.0082849250
  C         8.5768633884        8.5237243411       -0.2441440085
  C         9.6755096727        7.8800487152       -0.9073779266
  C         9.8229214924        8.1145145650       -2.4088670912
  C        10.3616596912        9.3096927074       -2.8857758102
  C        10.0918060572        9.7590408914       -4.1742059512
  C         9.3045949936        8.9677768174       -5.0698443709
  C         8.7490986659        7.7802875210       -4.6332788467
  C         9.0610919546        7.3501339763       -3.3547563051
  H         8.6724455259        6.4114915074       -2.8935716642
  H         8.0124028057        7.2765458585       -5.2293574337
  H         9.1061035005        9.4539846550       -6.0044703099
  H        10.4846938887       10.7116382228       -4.4635893536
  H        10.8461805842        9.9930801321       -2.2059192216
  C         7.3973697427        9.1227457594       -0.8739553220
  C         6.5178428632        9.8603416568       -0.1624569205
  H         5.6274033599       10.3099840655       -0.6474091105
  H         7.3845049314        9.1241323927       -2.0017380355
  C        11.6342693987        6.1983722182        3.5424561612
  C        11.1276452375        4.9536065688        3.8814146410
  C        11.2225263078        4.4764076352        5.2099774143
  C        11.9135896857        5.2620916748        6.1538111793
  C        12.5456064513        6.4488132045        5.7598340605
  C        12.3622140047        6.9338279287        4.5054176236
  H        12.7641534834        7.8951879291        4.1861472506
  H        13.0942423484        6.9998258409        6.4958003120
  H        11.8424804654        5.0150386022        7.1851814105
  H        10.7096161540        3.5476328257        5.5033048264
  H        10.4883513547        4.4762203126        3.1431071326
  C        13.9010279495        5.4950664472        1.9539323929
  C        15.0399285525        4.9993957754        1.2973941806
  C        14.9829518782        4.8449562823       -0.1394787740
  C        13.8657239065        5.1999554576       -0.8266909320
  H        13.7977572170        5.0318504957       -1.9086815486
  H        15.7675368011        4.3945857842       -0.7523203955
  H        15.8552910357        4.4772903783        1.8308652025
  H        14.0334230045        5.4236339409        3.0260787309
  C        11.6529282987        6.0321911867       -2.3145752783
  C        10.8280266624        4.8634224094       -2.6077255665
  C        10.7436730073        4.3378375195       -3.8801239759
  C        11.4093009310        5.0408380696       -4.9286540581
  C        12.1888263420        6.1772951703       -4.6646151098
  C        12.3395357559        6.6535549012       -3.3675230306
  H        13.0670936203        7.4048102912       -3.0656832445
  H        12.5958022075        6.6898841898       -5.5174783096
  H        11.3955207287        4.7468787162       -6.0140022086
  H        10.0677170387        3.5010075460       -4.1022065604
  H        10.3653472061        4.3382246968       -1.7570104758
