140

  C        13.3648587987        0.5228255113        1.2768927560
  C        14.3820633104        1.2862494897        1.9952474753
  C        15.4751443037        1.7806858539        1.3037476863
  C        16.5156585518        2.4803712860        1.9914161612
  C        17.5939969171        2.9566974164        1.2890120168
  C        14.3209594833        1.6026673821        3.4866142333
  C        13.5333949378        2.6704452828        3.9232590926
  C        13.6697155811        3.1431728181        5.2552921141
  C        14.6000245211        2.5318248927        6.1143623568
  C        15.4454817697        1.5022810559        5.6552073153
  C        15.2276665384        1.0092756590        4.3801346968
  H        16.4015953795        2.6069449534        3.0431368898
  H        18.3930845092        3.4798789319        1.7576564891
  H        12.7962583651        3.1534130842        3.2550339035
  H        13.0210549739        4.0045085455        5.5253618277
  H        14.5883445795        2.9012531237        7.1514607654
  H        16.1855286833        1.0307865133        6.3440050435
  H        15.7208602126        0.1288982765        4.0335373599
  C        13.3053178887        0.5980802527       -0.2382608132
  C        12.3234296823       -0.1568922174       -1.0170903476
  C        11.2473636041       -0.8149749387       -0.2978544349
  C        11.2614615341       -0.8384763342        1.1521687365
  C        12.3409217222       -0.2836915193        1.8602676617
  C        15.4836904406        1.6902558569       -0.1018772076
  C        14.3553360110        1.3106659060       -0.8160863650
  C        14.1892723081        1.7072631276       -2.2111404892
  C        13.3797244294        2.8388649626       -2.4483955498
  C        13.1881207943        3.2740669360       -3.8008604571
  C        13.8531953039        2.5824036805       -4.8599533622
  C        14.8249190614        1.6171922627       -4.5310847299
  C        14.9604372967        1.1334340894       -3.2515315750
  H        15.6908654280        0.3217919628       -3.1677712380
  H        15.4298895599        1.1335177164       -5.3068024504
  H        13.6738208756        2.8609963311       -5.9004984137
  H        12.5097782182        4.1286150495       -4.0006596470
  H        12.7158295038        3.2948892810       -1.7077913881
  C        16.5296869705        2.3595396469       -0.7911879779
  C        17.6653094445        2.7522410224       -0.1114364452
  H        18.5983919665        3.1489088362       -0.6148614014
  H        16.6283707584        2.2276001950       -1.8651544498
  C        12.2303176194       -0.5431416848        3.3706528361
  C        13.0239613640       -1.4592242089        4.0312605360
  C        12.9077504070       -1.7449498396        5.4074492046
  C        11.9292023530       -1.1257744794        6.1406844224
  C        11.2252172034       -0.0894794986        5.4986418173
  C        11.3958888784        0.2190538853        4.1977467190
  H        10.9012193438        1.1016798546        3.8049862528
  H        10.6373596056        0.5440411126        6.1544387314
  H        11.7168657971       -1.2652650079        7.2588007312
  H        13.5198988992       -2.5163595346        5.8814308331
  H        13.8065564534       -2.0021721564        3.4045935174
  C        10.1694360100       -1.4926389591        1.8117761734
  C         9.0538535741       -1.9198429579        1.1085724751
  C         9.0704186717       -1.8942916267       -0.2560392373
  C        10.1302635534       -1.4315361604       -0.9924116427
  H        10.2623747882       -1.5178579246       -2.1491825330
  H         8.3314705679       -2.2931389447       -0.9225523037
  H         8.2400974466       -2.2662336545        1.7247574017
  H        10.1922821179       -1.4883048081        2.8792059555
  C        12.4024184652       -0.4596950767       -2.5158938714
  C        13.1112351251       -1.5890055999       -2.9654136046
  C        13.1594607547       -1.8430229522       -4.2706795110
  C        12.3431677537       -1.1308864205       -5.1586472429
  C        11.4739633521       -0.0526988387       -4.7155772717
  C        11.5368249329        0.2317278399       -3.3663888649
  H        10.9638196922        1.0523151629       -2.8831458062
  H        10.7372049866        0.3314771681       -5.4333403596
  H        12.2049127914       -1.5048482032       -6.1602439109
  H        13.7759333535       -2.7030033091       -4.6506339527
  H        13.5970209700       -2.2258295180       -2.2014757208
  C         9.6547336999        7.5304115783        1.3205982441
  C         8.5750772813        8.2563519595        1.8999202969
  C         7.4266183535        8.6753105415        1.1457731414
  C         6.3989086386        9.4574735161        1.8285032203
  C         5.4200687003       10.1016934173        1.1028979046
  C         8.6440630667        8.8010377838        3.2687063079
  C         9.5257344944        9.8732814485        3.5980535862
  C         9.8139080409       10.2190096118        4.9512738848
  C         9.0915224005        9.6741376864        5.9501829420
  C         8.0323284294        8.6888363898        5.5968547890
  C         7.8948945015        8.2080732718        4.3358356168
  H         6.4997141505        9.5617624539        2.8883797982
  H         4.7372458342       10.7652771165        1.5618485859
  H        10.0800725576       10.3541953389        2.8221536052
  H        10.6494696628       10.9447004833        5.0461760331
  H         9.1417623263       10.0812564770        6.9350486274
  H         7.5596830341        8.2363605335        6.4339562932
  H         7.2575174936        7.3436909859        4.1223851138
  C         9.7157833467        7.5517541409       -0.1795031929
  C        10.8478181498        6.8890592647       -0.8562193011
  C        11.9192086429        6.4482920749       -0.0354201037
  C        11.8906772141        6.5033239551        1.4366245462
  C        10.7133639008        6.9991587031        2.0964563242
  C         7.4618986916        8.6624687555       -0.2490691434
  C         8.6308256488        8.1451545038       -0.8924889177
  C         8.7754918548        8.3531710068       -2.3921622283
  C         9.5115219346        9.4765007865       -2.8487811760
  C         9.5600078100        9.8474417372       -4.1651864531
  C         8.7028162582        9.1661879794       -5.1604206899
  C         8.0777737489        8.0236475234       -4.6555598502
  C         8.1063877669        7.6791295825       -3.2838848699
  H         7.6510205280        6.6668455963       -3.1485243853
  H         7.4565030731        7.3335857739       -5.2191882887
  H         8.5753679610        9.3756895775       -6.2193381706
  H        10.0355885337       10.7842548412       -4.4419532199
  H        10.1633241013       10.0603913115       -2.1831382200
  C         6.4833197370        9.4138707454       -0.9262113347
  C         5.4804618767       10.0653695254       -0.3284990231
  H         4.7649625906       10.6902501714       -0.8424763699
  H         6.6945808125        9.6180477552       -1.9725391699
  C        10.4768556728        6.7461549433        3.5208303671
  C         9.5417968728        5.7330972623        3.8351299545
  C         9.5414220668        5.2092385814        5.1863557926
  C        10.4043308433        5.6645404634        6.1681494204
  C        11.2620894295        6.7267018972        5.8379488176
  C        11.2993272231        7.2833084901        4.5130899583
  H        11.9811652318        8.0520367151        4.1029693405
  H        11.8988634208        7.0844427724        6.6502071256
  H        10.2765087899        5.3852046958        7.2119617767
  H         8.9460822722        4.3044810170        5.3548413113
  H         8.8822693449        5.2417411963        3.1065158903
  C        13.0069513820        5.8743354042        2.1578398609
  C        13.9786719193        5.1963899485        1.4780321750
  C        14.0365762280        5.1733591071        0.0629099629
  C        13.0325294047        5.8057029266       -0.6790326534
  H        13.1881744610        5.9030178728       -1.7571552862
  H        14.8078580519        4.5356190262       -0.4202240661
  H        14.8217263169        4.8831832643        2.1079333720
  H        13.0821681429        5.9592917176        3.2065771506
  C        10.6016621272        6.3539766219       -2.2219884462
  C         9.6939456827        5.2773903554       -2.3050458443
  C         9.4567682778        4.7828763766       -3.5756874885
  C        10.1523096831        5.2053412121       -4.7008952878
  C        11.1339843162        6.1817947129       -4.6374409715
  C        11.3048840752        6.7353889712       -3.3691421779
  H        12.0989943123        7.5483192716       -3.2460369986
  H        11.7707421552        6.4363684849       -5.4496960738
  H        10.0054913385        4.7041749741       -5.6511828023
  H         8.8243316153        3.9290085513       -3.6928793980
  H         9.0694288345        4.9633027837       -1.4441457169
