140

  C        15.3560691558       -1.0854830488        0.4780195186
  C        16.3796038174       -0.4411661995        1.2193674706
  C        17.4699546738        0.1252720359        0.4764211430
  C        18.6493841823        0.5939680548        1.2170910628
  C        19.6984929031        1.3000594018        0.7251633450
  C        16.3608200168       -0.1996299881        2.7238527014
  C        15.6520550560        0.9525022409        3.0764703976
  C        15.7749017822        1.5711000588        4.3080723576
  C        16.6859394820        1.0154903178        5.2422666995
  C        17.2931782263       -0.2577620301        4.9540369538
  C        17.1139393378       -0.8563134243        3.7297210580
  H        18.6438994582        0.4132618974        2.2791608232
  H        20.5661826654        1.6304830278        1.3505864202
  H        15.1220331989        1.3875072959        2.2905817490
  H        15.2772475656        2.5358675166        4.3810566839
  H        16.7887228515        1.5267317663        6.2315081958
  H        17.9287771595       -0.6457878669        5.7376614367
  H        17.6338059909       -1.8120066507        3.4953138715
  C        15.4200538530       -1.1126395476       -0.9691645541
  C        14.3300883726       -1.7303594613       -1.6471297756
  C        13.2356092858       -2.2852209452       -0.9258109848
  C        13.2117056469       -2.3009069147        0.4866388561
  C        14.3468446797       -1.8133547235        1.1785978195
  C        17.4976690173        0.2961159733       -0.9308792671
  C        16.4387396902       -0.3106917713       -1.6537638018
  C        16.4223582003        0.0917444518       -3.0518544793
  C        15.5704380853        1.1754052661       -3.4892098412
  C        15.5560399303        1.5957604729       -4.8360847472
  C        16.4030544124        0.9181045590       -5.7670877935
  C        17.2417344267       -0.1083531003       -5.3568647537
  C        17.2037342018       -0.5718392348       -3.9940871570
  H        17.8454302888       -1.4462906631       -3.7353408603
  H        17.9158921780       -0.5235401519       -6.1186989999
  H        16.3716945322        1.0649063968       -6.8558966616
  H        14.8255916787        2.3750744060       -5.1112921992
  H        14.9050791959        1.8141641110       -2.8745889894
  C        18.6207326679        1.0392729703       -1.4554341108
  C        19.6586647639        1.5487034600       -0.7176819926
  H        20.3820951357        2.2493828425       -1.2217918530
  H        18.5973692274        1.1982713336       -2.5477346935
  C        14.5129668617       -2.1848523610        2.6217637681
  C        15.3378177491       -3.2454759290        3.0893765531
  C        15.4652627768       -3.5762114248        4.4861541622
  C        14.6042878696       -2.9045022564        5.3486956439
  C        13.7441034039       -1.9736682390        5.0100932500
  C        13.6365316173       -1.6552787597        3.6092676179
  H        12.9092829561       -0.9543133136        3.3808244594
  H        13.1287734026       -1.4052729562        5.6461301000
  H        14.5656147845       -3.2135353959        6.4207219523
  H        16.0478756392       -4.4486617273        4.8038049832
  H        15.9930014596       -3.8156161875        2.3706510735
  C        12.1171754360       -2.9448921351        1.1998837483
  C        10.9668778429       -3.3938017481        0.5321380766
  C        11.0256458316       -3.4663441515       -0.8739247971
  C        12.1057663796       -2.8923962783       -1.5467085086
  H        12.0630251586       -3.0095718230       -2.5955741673
  H        10.1977228346       -3.9618356003       -1.4621850885
  H        10.1700764880       -3.8353717004        1.0317154179
  H        12.2287458156       -3.0308313776        2.2969475533
  C        14.3900808516       -2.0362801278       -3.1222747142
  C        15.3887222496       -2.8850489987       -3.5978786821
  C        15.3671131467       -3.2670983668       -4.9483006634
  C        14.2675578137       -2.9313633438       -5.8132943322
  C        13.2214328849       -2.1003989177       -5.3098286451
  C        13.3344738626       -1.6805030955       -3.9899366191
  H        12.5488450177       -1.0862028947       -3.5346646073
  H        12.3749320709       -1.8994165459       -6.0016872636
  H        14.3122239722       -3.3240336413       -6.8071867997
  H        16.0770936483       -3.9601993786       -5.3268028499
  H        16.1986804353       -3.0436100883       -2.9410893617
  C        11.8040847292        6.3211150938        0.3844533256
  C        10.7455635594        6.9206291852        1.1092549261
  C         9.5861866919        7.2958468530        0.4841611342
  C         8.5424135076        7.8952806547        1.2246101831
  C         7.4206898919        8.3825473863        0.5724135634
  C        10.8907473724        7.2353364203        2.5572371404
  C        11.6887196012        8.3227717578        3.0811679060
  C        11.6280976547        8.5821108087        4.4316394093
  C        10.6955218463        8.0025033491        5.2912070035
  C         9.9804131537        6.9371329436        4.7976889918
  C        10.0633225954        6.5034082629        3.5034204773
  H         8.4663194948        7.7703160954        2.2885420475
  H         6.7041052716        8.8927090081        1.1513813013
  H        12.4781630432        8.7664516909        2.5454957804
  H        12.3193224096        9.4830812108        4.6601252649
  H        10.6370754663        8.3560603111        6.3793988586
  H         9.4008528985        6.3955822485        5.4269854288
  H         9.5088230740        5.7292607803        3.0455077419
  C        11.7641849706        6.2649659874       -1.1377524954
  C        12.8458818979        5.5792525236       -1.8191451651
  C        14.0022609068        5.2147924883       -1.1609451045
  C        14.0503779997        5.1440233034        0.3299479393
  C        12.9443599819        5.6279767228        1.0317656538
  C         9.5256072855        7.3427919914       -1.0520143876
  C        10.6494406291        6.9624826147       -1.7779614940
  C        10.6568920268        7.3222068990       -3.2321789448
  C        11.5186368805        8.2969146567       -3.6725381711
  C        11.4923500327        8.6344333610       -5.0310825224
  C        10.5836262168        8.0514812163       -5.9195754730
  C         9.6956502788        7.1153605495       -5.4361387946
  C         9.7190103589        6.7918471183       -4.1197022756
  H         9.0258357488        6.0690732445       -3.7780566696
  H         9.0502787495        6.7694117699       -6.2300988229
  H        10.5572865123        8.2884462503       -6.9705467861
  H        12.1297069715        9.4164122320       -5.3180855412
  H        12.1379428940        8.7951126279       -3.0126511137
  C         8.3084547454        7.9089620492       -1.6520810075
  C         7.3022175141        8.4447911910       -0.8408115997
  H         6.4083991870        8.9640385254       -1.2797110982
  H         8.2514960742        7.9575307276       -2.7428632981
  C        12.6617009241        5.2012328739        2.4623473654
  C        11.7980251807        4.0912897998        2.5224732667
  C        11.7798725387        3.2695366090        3.6907005279
  C        12.3512952703        3.8340336573        4.8654695871
  C        13.1571277212        5.0134872846        4.7776635262
  C        13.3530786883        5.6205467498        3.5519306022
  H        13.9717435222        6.5593773909        3.4983190148
  H        13.6474020346        5.3904198864        5.6973658100
  H        12.2500159771        3.2788987322        5.7877895244
  H        11.0887295220        2.3731286651        3.8430706352
  H        11.4079859188        3.7159431799        1.5746932253
  C        15.0695780945        4.4025180175        0.9836146009
  C        16.2031323427        3.9350454734        0.2942697083
  C        16.1447200230        4.0426859888       -1.0721191798
  C        15.0963782877        4.5918017289       -1.8223331665
  H        15.1261052164        4.5895039889       -2.8923877816
  H        16.9634851683        3.6838830554       -1.7447248730
  H        17.0819956077        3.4547376920        0.7353700386
  H        15.0741394075        4.4557259514        2.0255798001
  C        12.6680931707        5.0639426097       -3.2120316387
  C        11.6644141544        4.1046871642       -3.4118985918
  C        11.4885956882        3.5135372826       -4.6932531511
  C        12.3314908557        3.9559271528       -5.7735292661
  C        13.2503986508        4.9805304963       -5.5748621545
  C        13.4098482849        5.5024996948       -4.3424759835
  H        14.1104530683        6.4150834246       -4.2702876453
  H        13.8068408379        5.3982340517       -6.4332977844
  H        12.1979463587        3.4619801287       -6.7436268876
  H        10.8594540002        2.6847560243       -4.8864503879
  H        11.0718246558        3.7571215099       -2.6043264176
