140

  C         2.8052373771        0.5026134878       14.7406060570
  C         3.7946645109        1.1507903056       15.4629515790
  C         4.8650535310        1.7581019223       14.8084732142
  C         5.9857522198        2.2823773932       15.5135691667
  C         7.0680701922        2.7880385790       14.8699024227
  C         3.5853347252        1.4535315975       17.0183980899
  C         2.6269365554        2.4339038759       17.3066932442
  C         2.4978630188        3.0932594500       18.5853441329
  C         3.3702957012        2.7399072835       19.6141373524
  C         4.3424385539        1.8016853713       19.3192258013
  C         4.4548077444        1.1410288224       18.0699185515
  H         5.8129825731        2.2771040261       16.5755957159
  H         7.8278435307        3.2857499908       15.4516491320
  H         2.0682886618        2.8630098764       16.4925292054
  H         1.8504965673        4.0051998672       18.7262208732
  H         3.3454345460        3.3104991269       20.4967609258
  H         5.0740096246        1.4554204199       20.0554733255
  H         5.2600572336        0.4299805785       17.9544143447
  C         2.7669911401        0.5812862006       13.2645423501
  C         1.6568814502       -0.0562247482       12.6019611847
  C         0.7627948078       -0.8100193421       13.3492167657
  C         0.7833434319       -0.9864171458       14.7563503855
  C         1.7864590862       -0.2402867552       15.4022775326
  C         4.9558329677        1.7306590172       13.3448304381
  C         3.8155862376        1.3107546735       12.5651074619
  C         3.9022207220        1.5485634265       11.0558058961
  C         3.4215636724        2.7494831636       10.5573111136
  C         3.3938581488        3.0179567232        9.2067732941
  C         4.0339953687        2.0904995540        8.3407486660
  C         4.6199649039        0.9547958190        8.8483103697
  C         4.5977192925        0.6533679563       10.1948896054
  H         5.0122479762       -0.3218572407       10.4408815231
  H         5.1018124754        0.1498483625        8.2218657628
  H         4.0872009087        2.2292276065        7.2554242766
  H         2.9817328168        3.9156757608        8.8270213772
  H         2.8938441913        3.4214317235       11.1844334429
  C         6.1026305802        2.2829448067       12.7022411699
  C         7.0917190248        2.8133437926       13.4737372945
  H         7.9746786284        3.2614273982       12.9749880071
  H         6.1559613858        2.3330158265       11.5996929412
  C         1.7705770570       -0.7349430321       16.8180938625
  C         2.6102022237       -1.7506471604       17.2228104526
  C         2.6775446506       -2.2127084365       18.5588363756
  C         1.7207894008       -1.7264648214       19.4559113064
  C         0.8607124272       -0.5972131616       19.1003578697
  C         0.9143518895       -0.1100811702       17.8093788357
  H         0.2195228723        0.6716705369       17.5770642126
  H         0.1611984518       -0.1991060308       19.8522565786
  H         1.7896222906       -2.1064969455       20.5117435451
  H         3.3182513909       -2.9755925152       18.8391685565
  H         3.2761043643       -2.1621754248       16.4544960258
  C        -0.3096687272       -1.7858134492       15.3119497641
  C        -1.2202063498       -2.4470776327       14.5922959052
  C        -1.2197403418       -2.3365370037       13.1759147409
  C        -0.3193041916       -1.4784702015       12.5606516201
  H        -0.3407042339       -1.4113291191       11.4657028575
  H        -1.9047925692       -2.8837307755       12.5959784274
  H        -1.7956936863       -3.1495897982       15.1332744006
  H        -0.2180449201       -1.9612303152       16.3673420851
  C         1.6662645303       -0.3265876558       11.1376696994
  C         2.2787324122       -1.5643739131       10.6718040368
  C         2.0844829402       -1.9448736637        9.3662883676
  C         1.2898866300       -1.0980456381        8.5321624187
  C         0.7952881468        0.1154158408        8.9541272354
  C         0.9894617261        0.4930950626       10.2899046452
  H         0.5607562202        1.4055806585       10.7217822739
  H         0.1663142342        0.5168923062        8.2139810569
  H         1.1538398205       -1.3643293365        7.5097126863
  H         2.3744564360       -2.8766545100        8.9940622728
  H         2.7646252566       -2.2048556489       11.4183109513
  C        -0.9551844816        7.3456060669       14.6934487434
  C        -1.9120875703        8.1000826738       15.3752075073
  C        -3.0761583214        8.5633870728       14.7330971906
  C        -4.1237257047        9.2534963310       15.4729686653
  C        -5.2656997675        9.7098454869       14.8087588283
  C        -1.9847219813        8.3016481298       16.8832206008
  C        -1.2849422742        9.3725295199       17.4768818325
  C        -1.4525220805        9.7163134404       18.7973252940
  C        -2.2962323961        9.0164606527       19.6157803110
  C        -3.0474933133        7.9823040543       19.0618635674
  C        -2.8804318920        7.5672293662       17.6981593405
  H        -4.1173385213        9.3425123245       16.5657465482
  H        -6.0177189687       10.2971176947       15.3311485837
  H        -0.6158323846       10.0167460526       16.8875190359
  H        -0.8445954889       10.5533779926       19.1760120976
  H        -2.4854598521        9.3987560310       20.6481928284
  H        -3.7625231413        7.4061572470       19.6485770862
  H        -3.4670489807        6.7658833762       17.2639016286
  C        -1.0435744278        7.2753128641       13.2191895258
  C         0.0729948294        6.7264471171       12.4752940824
  C         1.1785386851        6.2230639058       13.1483005955
  C         1.1427586454        6.1383103281       14.6266098227
  C         0.1030189031        6.6046958781       15.3957424174
  C        -3.1727734846        8.4836244015       13.3241457207
  C        -2.1118656896        7.8960620661       12.5561400493
  C        -2.0772367820        8.2506230848       10.9946068576
  C        -1.5597775287        9.4954147004       10.6328163259
  C        -1.6804868011        9.9844739630        9.3284910803
  C        -2.5352231832        9.2447744228        8.4760445380
  C        -2.9439051263        7.9227871523        8.8175270596
  C        -2.7224317659        7.4281624696       10.1040751089
  H        -3.1599809628        6.5058076198       10.4416884525
  H        -3.4972673351        7.3696036065        8.0879414007
  H        -2.6355547486        9.5650053074        7.4433249229
  H        -1.2673981858       10.9428876850        9.1036711536
  H        -0.9884805951       10.0565279916       11.3103958487
  C        -4.4242516143        8.8905136021       12.7560167053
  C        -5.4409325770        9.5441646353       13.4441561006
  H        -6.3883087657        9.6747491002       12.8793049265
  H        -4.5151746403        8.7964353134       11.6781143468
  C         0.1348193749        6.2564408011       16.8376805091
  C        -0.8014778817        5.2716328263       17.2694782775
  C        -0.8378204321        4.8679697565       18.6288928011
  C        -0.1194697948        5.6078014103       19.6209575749
  C         0.7463722009        6.5941496971       19.1703357541
  C         0.8783067288        6.9143654524       17.8152791021
  H         1.5360363531        7.6783761330       17.4772528777
  H         1.4684462621        7.0808104183       19.8591261273
  H        -0.1373932325        5.2874465610       20.6627564230
  H        -1.5208957776        4.1367154154       18.8892811027
  H        -1.3481582265        4.6914249721       16.4826118719
  C         2.2198745324        5.4250540381       15.2905783423
  C         3.3466083811        5.0522097560       14.6129229742
  C         3.4234434819        5.2285797910       13.1768809606
  C         2.3669959223        5.7405776491       12.4608079558
  H         2.4369579795        5.7957035150       11.3754570011
  H         4.3072685890        4.9158874863       12.6349592947
  H         4.2499486991        4.5358605161       15.0048540698
  H         2.1782806314        5.1898044553       16.3374833604
  C         0.1166728336        6.4166004190       10.9826070296
  C        -0.5001938025        5.2751468464       10.4593295501
  C        -0.3715387502        4.9375792744        9.0886819279
  C         0.3834815040        5.7560510099        8.2393400669
  C         0.9982619738        6.9528907689        8.7780306140
  C         0.8096213382        7.2904757402       10.1143136337
  H         1.2181938844        8.1545532807       10.5453579938
  H         1.4508991335        7.7007085944        8.0964821582
  H         0.5453433394        5.6070690674        7.1666751019
  H        -0.8087503936        4.0817883692        8.6209508985
  H        -1.2182626117        4.7538330581       11.0914752586
