140

  C        14.3912056686        0.0169265872        1.8079635965
  C        15.4300637117        0.6941632498        2.5342602388
  C        16.6373190036        1.0334319172        1.9461938425
  C        17.6549610875        1.6347517248        2.7725654213
  C        18.8627988446        2.1166006686        2.2290993689
  C        15.3583148530        1.0312398567        4.0377817798
  C        14.9016675612        2.3850993854        4.3186219019
  C        14.9803740766        2.9430218698        5.5814005439
  C        15.5493287836        2.1387539572        6.6436972346
  C        15.8985650257        0.8557018321        6.4034007038
  C        15.8791806226        0.3744730216        5.1258094619
  H        17.4891338251        1.8291451711        3.8269710704
  H        19.6441941935        2.5920480427        2.8277834605
  H        14.3848552859        2.8941770466        3.4708732779
  H        14.5894167444        3.9534866770        5.7797605166
  H        15.7496939212        2.5916586222        7.6289524581
  H        16.3542822876        0.2448902286        7.1923141294
  H        16.3388805026       -0.5993318620        5.0071800613
  C        14.5714923638       -0.1548106500        0.3186008223
  C        13.5087869187       -0.7102250098       -0.4322849930
  C        12.4009624559       -1.2510399932        0.2087198322
  C        12.3016146252       -1.2749892098        1.6682562943
  C        13.3123137592       -0.6753145887        2.4480734033
  C        16.8322789022        0.9509658545        0.5545189245
  C        15.7597407769        0.4662547203       -0.2860196911
  C        15.7619333989        0.7790323877       -1.7237298073
  C        14.9702199621        1.9015945134       -2.1119612287
  C        14.9997464367        2.4346406764       -3.4216989747
  C        15.8385061856        1.8037476914       -4.3963014632
  C        16.6829809583        0.6977267107       -3.9948749216
  C        16.5923110735        0.2315441104       -2.6901913454
  H        17.1920170161       -0.6286414206       -2.4004554432
  H        17.3382507415        0.2441028818       -4.7085241362
  H        15.8858750271        2.1557815399       -5.4408259319
  H        14.4746564941        3.3696810390       -3.6147874341
  H        14.3403533197        2.4046561830       -1.4080415313
  C        18.0385350685        1.5013676230        0.0179446581
  C        18.9608304378        2.0950693153        0.8086143707
  H        19.9306451674        2.4060011034        0.3814267585
  H        18.3215133634        1.2591484751       -1.0265544354
  C        13.2940812356       -1.0077015596        3.9056145299
  C        14.0914474219       -2.0213358379        4.3661679969
  C        14.0246746603       -2.3616428433        5.7497859399
  C        13.0161417743       -1.7842717125        6.6032491604
  C        12.3646580907       -0.6644365235        6.0871372705
  C        12.5161880133       -0.2787893620        4.7872140151
  H        11.8655092644        0.5307622607        4.3764360999
  H        11.6866028820       -0.1649317002        6.8234216709
  H        12.9088555649       -2.2521084701        7.6274111042
  H        14.6754787541       -3.1906796679        6.0709052042
  H        14.7528394425       -2.5190204440        3.7612622505
  C        11.1033825977       -1.7618668595        2.2067146274
  C        10.1059697190       -2.3077690545        1.4251739811
  C        10.2330509802       -2.4787235714        0.0524338477
  C        11.3786419024       -2.0085854877       -0.5083011605
  H        11.5372658118       -2.1579701219       -1.5712040823
  H         9.4549853137       -3.0092225490       -0.4953611478
  H         9.1518596934       -2.6370625045        1.8224810040
  H        10.9160419413       -1.6540291387        3.2661638751
  C        13.6373776389       -0.9196578075       -1.9557741293
  C        14.3501407273       -2.0304472927       -2.4470616068
  C        14.3055385742       -2.3272571075       -3.8542261998
  C        13.6502705212       -1.4738656341       -4.7536646524
  C        12.9814251622       -0.3884616738       -4.1590455268
  C        12.9507176790       -0.1222999275       -2.8291380683
  H        12.5038291217        0.7738974013       -2.4409515911
  H        12.5983363046        0.3930304524       -4.8475915662
  H        13.6973322486       -1.6529462212       -5.8402829597
  H        15.0326947693       -3.1596396139       -4.1703618462
  H        14.8149977743       -2.6941918370       -1.7160328239
  C        11.1721399038        7.1882576919        1.6397333866
  C        10.2752249904        7.9708163010        2.4581176776
  C         9.1489142681        8.5901255722        1.7553593547
  C         8.1255901786        9.3295528931        2.5001438172
  C         7.1641191504        9.9521296174        1.7783277876
  C        10.3092973790        8.2654090687        3.9076864905
  C        10.8028391870        9.4697322415        4.4243609312
  C        10.7332403806        9.7410586328        5.8163052667
  C        10.1350978664        8.8814763617        6.6793153556
  C         9.3657177429        7.8884115312        6.0917690846
  C         9.5413558704        7.4653828926        4.7727039374
  H         8.1485445953        9.4934590366        3.5242577943
  H         6.4302121419       10.4799793081        2.3547096086
  H        11.1932271552       10.1720326678        3.7176466151
  H        11.3271993192       10.5694712470        6.1383717597
  H        10.1625742064        9.1002859660        7.7371727335
  H         8.8426635113        7.2052567489        6.7978969779
  H         9.0557240328        6.6053515538        4.4113472286
  C        11.0753662700        7.1489786567        0.2118653534
  C        12.0004751979        6.4597755348       -0.5912047420
  C        13.1168066274        5.8589720196        0.1093954134
  C        13.2352180999        5.7816842781        1.5225054972
  C        12.2131329194        6.4090530484        2.2488159620
  C         9.0558806709        8.5951460178        0.3058096078
  C        10.0347560887        7.9267694226       -0.4137388820
  C        10.0088405983        8.2305530789       -1.8633868217
  C        10.8064113168        9.3000300969       -2.2497385332
  C        10.7490024578        9.7063356008       -3.5968443832
  C         9.8021130365        9.1249407645       -4.4757297124
  C         8.9904781041        8.0965126703       -4.0663771911
  C         9.0935534625        7.6695646573       -2.7343576909
  H         8.4423455598        6.8104922334       -2.4634243707
  H         8.3418477441        7.6058506219       -4.8013213134
  H         9.7022319147        9.6534132578       -5.5073843704
  H        11.4152514095       10.4926259870       -3.9854423021
  H        11.4424366816        9.8295981112       -1.5343061299
  C         7.9725881992        9.2732966343       -0.3234345223
  C         7.0690407416        9.8781846702        0.4031948332
  H         6.2476900404       10.4024918186       -0.0837819390
  H         7.9930997581        9.2602606733       -1.3658632466
  C        12.2302136022        6.1544305628        3.7076142359
  C        11.5757989852        5.0574399680        4.2735828216
  C        11.7261813226        4.7664908568        5.6351026283
  C        12.5249543243        5.5487619916        6.4916897137
  C        13.2650303146        6.5735386591        5.9395121163
  C        13.0878175618        6.9262340486        4.6075378308
  H        13.5938588968        7.7490078519        4.1032142577
  H        13.9247218500        7.1336875425        6.5735042220
  H        12.5572689392        5.4488097019        7.5632088942
  H        11.1581797063        3.9633012632        6.0929818487
  H        10.7954930021        4.5343867519        3.6648370064
  C        14.3900780845        5.2484301234        2.1152491446
  C        15.4300680287        4.5584376008        1.4378912193
  C        15.3709558219        4.6258030254       -0.0004301545
  C        14.2199996936        5.2344990383       -0.6351075052
  H        14.1805419388        5.2034003599       -1.7293543381
  H        16.1379877870        4.1498188736       -0.5876289270
  H        16.2795035161        4.0617126654        1.9249785197
  H        14.5940313656        5.4092705999        3.1622955192
  C        11.8487647230        6.2320368331       -2.0922794688
  C        10.9672968784        5.2737138281       -2.6363911453
  C        11.1092381142        4.8893090450       -3.9952851525
  C        12.1013075634        5.3537270185       -4.8417644375
  C        12.9286734174        6.3835662847       -4.3328234389
  C        12.7724585967        6.8319213078       -2.9896700990
  H        13.4588044501        7.5980669207       -2.5811219352
  H        13.5823709323        6.8602787071       -4.9649274011
  H        12.0719728878        5.1596331954       -5.9128858469
  H        10.3741186519        4.1125927769       -4.2633036985
  H        10.2407077948        4.9025437537       -1.9672356999
