140

  C        13.3090578492        0.6173896799        1.4397560932
  C        14.3156334885        1.2581329036        2.1290986875
  C        15.4683823836        1.7754371619        1.4335975442
  C        16.3876846266        2.5853023898        2.1374868356
  C        17.4784193531        3.1179208699        1.5566256838
  C        14.2398841891        1.5604491935        3.6141664902
  C        13.4310633790        2.6307517590        4.1098789612
  C        13.4914394409        3.0824096093        5.3957788335
  C        14.4375744975        2.4408082024        6.2329020049
  C        15.3226268844        1.3811563620        5.8509742970
  C        15.1082011014        0.8597313393        4.5420674381
  H        16.3527825803        2.6212270923        3.2425022573
  H        18.2196186117        3.7248348326        2.0664878082
  H        12.7596368306        3.1294288046        3.4318722620
  H        12.8148225530        3.8026079065        5.7997782041
  H        14.4794468734        2.6971066962        7.3042739273
  H        15.9396300737        0.9848347723        6.6236457158
  H        15.7883481118        0.1098998862        4.1499472701
  C        13.3650770050        0.6006767075       -0.0333763149
  C        12.2416318816        0.0706975864       -0.7726328937
  C        11.1540907293       -0.5540411126       -0.0721731240
  C        11.1772057346       -0.5714106922        1.3609944758
  C        12.2265587842       -0.0061266590        2.0608044092
  C        15.5995001725        1.7108127769       -0.0042835806
  C        14.5120923442        1.1122174623       -0.7219344646
  C        14.4615253172        1.4783745115       -2.1342597085
  C        14.0083693453        2.7384793986       -2.4445129015
  C        14.0377662609        3.2105882300       -3.7569719264
  C        14.6006050045        2.3421992938       -4.7450792922
  C        15.1669753352        1.1068930822       -4.3606338981
  C        15.1100226273        0.6479413875       -3.0284771166
  H        15.4855863232       -0.3422982761       -2.7245099068
  H        15.6050444263        0.4940288162       -5.1531834945
  H        14.7922468258        2.6012866594       -5.7975530804
  H        13.7135898741        4.1865254710       -4.1230443222
  H        13.4600079995        3.2123625448       -1.6390702133
  C        16.6877162823        2.3798247477       -0.6232700656
  C        17.6744363850        3.0671384777        0.0931632132
  H        18.4699996897        3.6321149957       -0.3472513936
  H        16.8012536930        2.3554280504       -1.6994979741
  C        12.3044037626       -0.3687403261        3.5136852674
  C        13.0835036289       -1.4635941898        3.8413939976
  C        13.1712915218       -2.0288473910        5.1125726667
  C        12.4743452149       -1.4142469162        6.1439230713
  C        11.6667299857       -0.2728193357        5.8221518443
  C        11.5632932368        0.2230144659        4.5605760276
  H        11.0321396328        1.1205592343        4.2640004733
  H        11.0286540297        0.1269624651        6.6255582318
  H        12.6202890855       -1.8141890158        7.1209296461
  H        13.7872017673       -2.8773448035        5.1582393665
  H        13.7647956406       -1.9755572996        3.0686730341
  C        10.0940610364       -1.2674838325        2.0094514917
  C         9.0394778690       -1.7971454545        1.3375117986
  C         8.9894809178       -1.7714192166       -0.0981187580
  C        10.0086978471       -1.1804110451       -0.7705327788
  H         9.9967356128       -1.0299231971       -1.8328910671
  H         8.2043348031       -2.1912652777       -0.7150456332
  H         8.2127374339       -2.2020519961        1.9194895081
  H        10.0488588745       -1.2556867915        3.0891589334
  C        12.2021360808       -0.2547276261       -2.2337455563
  C        12.9081707843       -1.4585890368       -2.5578694737
  C        12.9404953131       -1.9219510943       -3.9049230174
  C        12.2110999634       -1.2267335180       -4.8847236123
  C        11.4728879597       -0.1009706688       -4.5320384153
  C        11.3939288413        0.4136192136       -3.2151375727
  H        10.7306253414        1.2353405954       -2.9582661075
  H        10.8950093712        0.3561472982       -5.3509177156
  H        12.1732309521       -1.6075753207       -5.9487794545
  H        13.5429277783       -2.8134466343       -4.1914938347
  H        13.3904087801       -2.0517235452       -1.7326478022
  C         9.8635007117        7.6295285330        1.3642381674
  C         8.8808331665        8.3468546369        2.0627944591
  C         7.7060140208        8.8025440208        1.4020071741
  C         6.6590936483        9.4797528569        2.0687438704
  C         5.6060237634       10.0967151410        1.4032394560
  C         9.0243820682        8.8435465371        3.4953709262
  C         9.6730645711        9.9894449738        3.9688720479
  C         9.6177662344       10.3473198828        5.3442892302
  C         8.7468768446        9.6120666725        6.1509857912
  C         8.0844996269        8.4690301619        5.6577652402
  C         8.2343513396        8.0728517863        4.3464092809
  H         6.5934608987        9.5119120525        3.1599565540
  H         4.8453723818       10.6017895745        1.9838365024
  H        10.3715717326       10.4873462204        3.3477657921
  H        10.2841200392       11.0590786006        5.8288672821
  H         8.6423474623        9.8396669610        7.2096376293
  H         7.4741924009        7.8861715286        6.2948697157
  H         7.9066004360        7.0859412317        4.0360111462
  C         9.8310884326        7.6649425581       -0.1960044033
  C        10.7355734303        6.8992005265       -0.9569054933
  C        11.8270589335        6.2626885970       -0.2721342074
  C        11.8671443281        6.2385090153        1.1832707712
  C        10.7912152400        6.7663101092        2.0094988960
  C         7.6534625972        8.8207018192       -0.0062114644
  C         8.7288221850        8.3274608779       -0.8271386468
  C         8.7880190377        8.7133471961       -2.2633629589
  C         9.5528860065        9.8535900220       -2.7212112984
  C         9.4452351871       10.3452615645       -4.0178942771
  C         8.4793207264        9.7852739342       -4.8320084710
  C         7.8440365062        8.6234443414       -4.4809701071
  C         7.9511950002        8.0686669111       -3.1565135313
  H         7.3592078105        7.2645197973       -2.8056051358
  H         7.1140426079        8.1768911077       -5.1955725990
  H         8.2076740824       10.3388335770       -5.7443327044
  H        10.0485778914       11.1873293462       -4.3538709512
  H        10.2979786095       10.1533012325       -1.9798505097
  C         6.4707770193        9.4534886195       -0.6935914358
  C         5.4513224522       10.0652401315       -0.0240974253
  H         4.5974069958       10.6386101597       -0.4005044855
  H         6.3540929117        9.5231491308       -1.8148121932
  C        10.6957738577        6.2803432178        3.4041285926
  C         9.8026073461        5.3023110388        3.7176077559
  C         9.6700478882        4.7908894348        5.0063799680
  C        10.4029428052        5.3917287882        6.0188756330
  C        11.3178700179        6.4300731216        5.7019662075
  C        11.4988301620        6.9172252581        4.4024455258
  H        12.3446185854        7.5393062946        4.1449233717
  H        11.8040903633        6.9673392571        6.5003286424
  H        10.3552743325        5.0523915327        7.0758176370
  H         8.8880897636        4.0507990064        5.1102674370
  H         9.2313151375        4.7683646211        2.9603385169
  C        13.0743552348        5.7435685212        1.8060815900
  C        14.1388183391        5.2542167143        1.1436783244
  C        14.0845666875        5.2570802533       -0.3022370640
  C        13.0041072033        5.8142340371       -0.9424822857
  H        13.1912746556        5.9131084481       -2.0123627194
  H        14.9221283005        4.8710736375       -0.9442665697
  H        15.0154214809        4.8956489744        1.6867299075
  H        13.0936493445        5.7643613556        2.8529256727
  C        10.6685109219        6.5053898613       -2.4585632239
  C         9.8135178078        5.4170156798       -2.7191485754
  C         9.8413567387        4.9315759503       -4.0770803801
  C        10.6595508759        5.4918569675       -5.0525986168
  C        11.5260905686        6.5777994579       -4.7106416009
  C        11.5149246766        7.0711349487       -3.4414656201
  H        12.3222018832        7.7915144538       -3.0730040302
  H        12.2720373019        6.8916611223       -5.4429556430
  H        10.6964438224        5.0679376426       -6.0705713517
  H         9.1472935195        4.0944025773       -4.2904078595
  H         9.1528555140        5.0275749733       -1.9136144839
