140

  C        13.4984328187        0.4840115621        1.1868747147
  C        14.5336915682        1.1438585324        1.9480693091
  C        15.6357024835        1.6305534810        1.1938688631
  C        16.6929509694        2.3503370909        1.8661808524
  C        17.7491818234        2.8859647954        1.1057767404
  C        14.3295299466        1.5686056549        3.3361437558
  C        13.3003521219        2.5500020517        3.6026329106
  C        13.1150959131        3.0836375935        4.8951865812
  C        13.9084191037        2.6184933587        5.9061439049
  C        14.9467494900        1.7157032737        5.6537342763
  C        15.1705243088        1.1848015519        4.3785910567
  H        16.5755217868        2.5492916711        2.9205911715
  H        18.4852586677        3.3792247681        1.6808484321
  H        12.7328057537        2.9672276491        2.7699085063
  H        12.4123845845        3.9017772248        5.0502077091
  H        13.8958658426        3.1505663092        6.8907623134
  H        15.6516914511        1.5014098701        6.4594740060
  H        15.9244185397        0.4408226977        4.2078108341
  C        13.5426059737        0.3565255028       -0.1994061012
  C        12.4305570354       -0.3448800870       -0.8445526204
  C        11.3494537023       -0.8182513052       -0.1103440612
  C        11.3615496292       -0.6991801933        1.3051180942
  C        12.4594908502       -0.1277746718        1.9720266142
  C        15.6536206985        1.4808215504       -0.2942870342
  C        14.5742085270        0.9123710467       -0.9845098787
  C        14.6127559063        1.1235195340       -2.4983663491
  C        13.8923095328        2.2740102499       -2.8949886372
  C        14.0321965546        2.7194253396       -4.2413735004
  C        14.8220181936        2.0040696445       -5.1650059211
  C        15.4059192929        0.8012874611       -4.7392267089
  C        15.3540173177        0.3748458345       -3.4080971462
  H        15.9015450358       -0.5144726773       -3.0641723276
  H        16.0119132342        0.2125402934       -5.3902473425
  H        15.0396882476        2.4936109158       -6.1533874438
  H        13.4753115107        3.6034252204       -4.4898287248
  H        13.2694893190        2.8725481328       -2.2237373930
  C        16.7618607787        2.0990997202       -0.9547439830
  C        17.7820463572        2.7984019139       -0.2904045141
  H        18.6271983562        3.3687006387       -0.7800713628
  H        16.7604337489        2.0368289235       -2.0615859081
  C        12.5800667938       -0.5259806213        3.3900997455
  C        13.3297637230       -1.6683427972        3.6184535952
  C        13.4425154767       -2.2290618052        4.8901487442
  C        12.6662919471       -1.7697981208        5.9617337803
  C        11.7508950063       -0.7652957335        5.6603202419
  C        11.7753853358       -0.1070712189        4.4650746999
  H        11.0262999591        0.7238242343        4.3496309304
  H        11.0458999095       -0.3982114769        6.4320342807
  H        12.6951175408       -2.1069547193        6.9333144736
  H        14.0578530802       -3.0638948958        5.1442813080
  H        13.6458204698       -2.2910300285        2.7127040242
  C        10.2829176048       -1.3076201233        2.0239381515
  C         9.1740570665       -1.9436806258        1.4262002912
  C         9.1739331008       -1.9803588498        0.0007868156
  C        10.2521778670       -1.4765544345       -0.6933117681
  H        10.2954443075       -1.5171002762       -1.8388071767
  H         8.3686874984       -2.4969498999       -0.5370606666
  H         8.3970965763       -2.3306213408        2.0478565611
  H        10.1155843317       -1.1250902944        3.0494524901
  C        12.4049475040       -0.8186811640       -2.2912396696
  C        13.1874089132       -1.8493538509       -2.7709508242
  C        13.1304150812       -2.3639836939       -4.0173194162
  C        12.2497049135       -1.7853591622       -4.9164945340
  C        11.4429889657       -0.7623064619       -4.5264211429
  C        11.5617025885       -0.1730350150       -3.2327713941
  H        11.0232381998        0.7180544284       -2.9127135074
  H        10.7371961472       -0.3308853217       -5.2720850565
  H        12.1622342457       -2.1815983882       -5.9347081862
  H        13.6559642110       -3.2593148523       -4.2833521837
  H        13.9360858499       -2.3690831202       -2.1468602958
  C         9.8095004106        7.6461432327        1.3422340036
  C         8.8439133310        8.3815175151        2.1056968400
  C         7.7239375197        8.9561990559        1.3914194428
  C         6.6574184717        9.5985603371        2.0471456101
  C         5.5463498774       10.2085182495        1.5113482366
  C         8.8737550458        8.7300310173        3.5074549441
  C         9.6366784592        9.8587763582        3.9821189775
  C         9.6581554614       10.1155464562        5.3595390951
  C         8.7725585732        9.4347586394        6.3004660112
  C         7.9277513392        8.4154135059        5.7636170171
  C         8.0417538956        7.9994152149        4.4571125215
  H         6.7803330624        9.4784702273        3.1085342248
  H         4.7941626064       10.7988474036        1.9248936660
  H        10.3063123859       10.4558984583        3.3848236777
  H        10.2907555132       10.8903391981        5.8193941611
  H         8.7316456394        9.7828139582        7.2611165921
  H         7.2428764355        7.8673453043        6.3908059022
  H         7.5676869607        7.1210924870        4.0503708561
  C         9.6885636114        7.5948222928       -0.1240513327
  C        10.6877020708        6.8910282364       -0.8272641997
  C        11.7955896109        6.3114740408       -0.1243849389
  C        11.8409247548        6.2867256655        1.2893732782
  C        10.7775536642        6.8786716514        1.9842780752
  C         7.5356095360        8.8363529226       -0.1019499713
  C         8.6399437789        8.2090965327       -0.8454820010
  C         8.6780168576        8.6665449005       -2.3074267091
  C         9.4259919588        9.7132768952       -2.7182247256
  C         9.3825530153       10.2177646146       -4.0580196893
  C         8.5490799966        9.5634447713       -4.9330255368
  C         7.8063862067        8.4092144793       -4.5981224287
  C         7.8934595968        7.9360203418       -3.3232358537
  H         7.4269776601        7.0643422788       -3.0611640936
  H         7.1141792328        7.9091548171       -5.2977451561
  H         8.2697347376        9.8808703173       -5.9296889860
  H        10.0291957132       11.0513839213       -4.3024761983
  H         9.9994162802       10.1825396431       -1.9060164906
  C         6.2376254849        9.2856855174       -0.6630699716
  C         5.3336963480        9.9693809619        0.1238720847
  H         4.4548270105       10.4173085814       -0.3438838307
  H         6.0719256169        9.0493023286       -1.7228914823
  C        10.7059521466        6.6733789800        3.4169513189
  C        10.0457209391        5.5393747448        3.8943808358
  C        10.2442951190        5.0661151965        5.2354191791
  C        11.0094200107        5.7572523998        6.1237494882
  C        11.6820227422        6.8832223725        5.6555032815
  C        11.5257797511        7.3623635246        4.3674885824
  H        12.0621671582        8.2721644811        3.9510475535
  H        12.3202628977        7.4383639784        6.3861840865
  H        11.3655148713        5.3930854690        7.0958487024
  H         9.7801146239        4.0888828757        5.4506034082
  H         9.6226276155        4.8072411027        3.1742110774
  C        12.8845914289        5.4524729876        1.8675320359
  C        13.8457105872        4.8166215775        1.1198562772
  C        13.8641958991        4.8985796840       -0.3076680525
  C        12.8411762046        5.6196008997       -0.8378815774
  H        12.8088020066        5.6404958638       -1.9122954952
  H        14.7143316480        4.5361033152       -0.9374626931
  H        14.6371557473        4.1520657081        1.5454404064
  H        12.9840894081        5.3841745490        2.9251908524
  C        10.6805490789        6.5721632193       -2.2877753120
  C         9.9984717871        5.3927053225       -2.7745461939
  C        10.0357693766        4.9564415013       -4.1038487695
  C        10.8215862196        5.7343085261       -4.9483039119
  C        11.5465758917        6.9030285728       -4.5295762266
  C        11.4626962062        7.3388626457       -3.1759294132
  H        12.0713906600        8.2564629143       -2.9393842289
  H        12.1317742135        7.3572792971       -5.2707863080
  H        11.1377004267        5.4435536972       -5.9128921772
  H         9.4752673580        4.1558095640       -4.5367885997
  H         9.4671893997        4.7342304234       -2.0461228424
