140

  C        14.9646726596       -0.0506507301        2.0079880530
  C        16.0235265889        0.5982758219        2.6368555130
  C        17.0947425870        1.2686703156        1.9443950845
  C        18.2585963381        1.8802385482        2.5027810043
  C        19.0463879259        2.6923416809        1.6849371692
  C        15.9555490636        0.9337850386        4.1546291471
  C        15.0697577544        1.8994347125        4.5835631827
  C        15.0871311131        2.5323879813        5.8209067393
  C        15.9195481066        1.9803238248        6.7849760592
  C        16.7609088631        0.9258877573        6.4338459468
  C        16.8162141232        0.4419476074        5.1313718046
  H        18.2851443072        1.9623064892        3.5880986954
  H        19.8400291044        3.2644597079        2.1213729880
  H        14.4364851778        2.3419887147        3.8409770854
  H        14.4096704106        3.3715119203        5.9410206327
  H        15.9993885127        2.3392498842        7.8401364587
  H        17.2991491070        0.3627035547        7.2264575331
  H        17.5571147625       -0.2959161965        4.7748899229
  C        14.8784875245        0.0023828262        0.5722742505
  C        13.9349221989       -0.8015891442       -0.1051657171
  C        12.9070156598       -1.4632494774        0.6213564572
  C        12.8677206219       -1.4190658103        2.0972220697
  C        13.9696383442       -0.8678262614        2.7991936401
  C        17.0526917657        1.1919091043        0.4453715061
  C        15.9188647003        0.6778664811       -0.1944496226
  C        15.7879150121        0.9940114801       -1.6399437400
  C        14.9774236088        2.0133035593       -2.2116804858
  C        15.1121939656        2.4863374970       -3.4862434047
  C        16.1826150097        2.0325842296       -4.2121984775
  C        17.0520400704        0.9996131245       -3.7530406120
  C        16.7521076937        0.4105116276       -2.5112827633
  H        17.2100006552       -0.4825649576       -2.0913283355
  H        17.8811878663        0.7019687182       -4.3882561751
  H        16.5036859087        2.3829536678       -5.1990297328
  H        14.3616235023        3.2064431367       -3.8779574733
  H        14.0930652402        2.4114583931       -1.6802143165
  C        17.9727432368        1.9989717079       -0.3720329529
  C        18.9103511251        2.7221060511        0.2497588701
  H        19.5782700594        3.4598278270       -0.1846791968
  H        17.9092804134        2.1025844148       -1.4629445640
  C        14.0882880784       -1.2437365079        4.2282474796
  C        15.1150140319       -2.1191843623        4.7923876735
  C        15.1443153621       -2.3604776790        6.1595437610
  C        14.1774622581       -1.7613983388        6.9938308887
  C        13.1659551220       -0.9297108835        6.4487521550
  C        13.1420248597       -0.6021305867        5.0404844619
  H        12.4762537894        0.1781116760        4.5035991729
  H        12.3414282192       -0.3596662781        6.9690802352
  H        14.0387143780       -1.9632573160        7.9869531239
  H        15.9520473046       -2.9592783986        6.6645316353
  H        15.8299350863       -2.7357556857        4.1677170961
  C        11.7237221886       -2.0377984331        2.7000866015
  C        10.6517377787       -2.5808543702        1.9733097067
  C        10.6432242179       -2.5009775542        0.5330113641
  C        11.7525843852       -1.9619396403       -0.0803791110
  H        11.7046008447       -2.0177263331       -1.1629961090
  H         9.7933891771       -2.9843016238        0.0657388458
  H         9.8224081597       -3.0158528250        2.5317188966
  H        11.7487006437       -2.1435240973        3.7797470070
  C        14.1024757001       -1.2426956520       -1.5187956856
  C        14.9199871959       -2.3021160458       -1.8471906446
  C        15.0394275749       -2.7919322944       -3.1716486715
  C        14.3174201646       -2.1541686693       -4.2197493314
  C        13.5774774270       -1.0618245904       -3.8805853436
  C        13.4075605226       -0.5827947556       -2.6010545573
  H        12.7188487684        0.2126021025       -2.3246470386
  H        13.0111742058       -0.6266901377       -4.6657687073
  H        14.3962420511       -2.4678919435       -5.2632425096
  H        15.7110484423       -3.6135526648       -3.3305456871
  H        15.4534480990       -2.7959253781       -1.0558643121
  C        11.2720477888        6.9682364360        1.7329731921
  C        10.1331123360        7.6257112524        2.4272228159
  C         9.1673777718        8.2966726021        1.6535701312
  C         8.0676765879        8.9087162506        2.3615429561
  C         7.0358518165        9.5047063607        1.7251296289
  C        10.2608619782        8.0960209234        3.8519672990
  C        11.0691467468        9.2291316922        4.1156469702
  C        11.1074348231        9.7372171687        5.4004703813
  C        10.3906932936        9.1029020672        6.4160589121
  C         9.5189925984        8.0418394523        6.1009562655
  C         9.4821632246        7.5187010371        4.8071406183
  H         8.0312360400        8.8121302492        3.4332704988
  H         6.2497557705        9.9370287534        2.3501655787
  H        11.7807945076        9.6997832458        3.4480664246
  H        11.7003038634       10.6186577033        5.6893072819
  H        10.5209393547        9.3670380208        7.4142891042
  H         8.8347440274        7.6646953006        6.9306092691
  H         8.8051947376        6.6736424943        4.6071839635
  C        11.3862045474        7.1715858490        0.3072944641
  C        12.3847908239        6.4436721617       -0.4691245991
  C        13.4786168806        5.8337041871        0.1919138451
  C        13.4657685396        5.8262128987        1.6672280879
  C        12.3526137641        6.3340436886        2.4083290250
  C         9.2504483155        8.4713203827        0.2225199746
  C        10.3941993563        8.0009883455       -0.4439492837
  C        10.6653448647        8.3382700843       -1.8585408024
  C        11.5900772785        9.3925814295       -2.1862025038
  C        11.5483835275        9.9243201318       -3.4396775557
  C        10.7297382214        9.4729811700       -4.4284864356
  C         9.8664677213        8.3788306104       -4.1639681230
  C         9.8108276406        7.8280593354       -2.8547897546
  H         9.0535910351        7.0782622961       -2.5143104673
  H         9.1127087194        8.1996230366       -4.8766119624
  H        10.7572580374        9.8800717373       -5.4596389967
  H        12.2121250759       10.8228988191       -3.7128751672
  H        12.3236945521        9.7108142289       -1.4684297095
  C         8.1539691259        9.2220842673       -0.4419025096
  C         7.1805324383        9.7238398728        0.2815460913
  H         6.3633754377       10.1776330720       -0.3037235746
  H         8.0251493441        9.3039722750       -1.5373153642
  C        12.2875503725        5.8917974519        3.8316212228
  C        11.6433087966        4.6618928738        4.0227144097
  C        11.3025298659        4.3111268473        5.3175256070
  C        11.9115051886        4.9702139834        6.4034322512
  C        12.5122587493        6.2384659414        6.1929694218
  C        12.7018348170        6.7211901417        4.8969094466
  H        13.0478276938        7.6840518785        4.6100753200
  H        12.7007631394        6.9038644223        7.0478451791
  H        11.8225722865        4.5032822532        7.3295022728
  H        10.6966447626        3.3997843162        5.5383937981
  H        11.3645421106        4.0121705938        3.1984629078
  C        14.5432449615        5.2033379766        2.3700810573
  C        15.5986956537        4.5931220840        1.6815145514
  C        15.5956733268        4.5825826503        0.2727699595
  C        14.5837488923        5.2000704633       -0.4455867656
  H        14.7237010974        5.1944506350       -1.5040566314
  H        16.3220286063        3.9034458554       -0.1612871627
  H        16.4630553329        4.1517694785        2.1397630483
  H        14.5492192637        5.2191484675        3.4713785133
  C        12.2259917030        6.0020628525       -1.8826061178
  C        11.1383318050        5.2039656332       -2.2684586447
  C        11.1457744424        4.7061992658       -3.5359009744
  C        12.1030523986        5.0696068197       -4.4776455218
  C        13.2037388245        5.8709373696       -4.0758062133
  C        13.2201949827        6.3877021914       -2.7468517476
  H        14.1270937685        7.0470443624       -2.4767461436
  H        13.9699989808        6.0706260409       -4.8424010384
  H        12.0450038424        4.7466791390       -5.5507699278
  H        10.3496367718        4.0395834441       -3.8325666580
  H        10.3847684945        4.8159016657       -1.5321120346
