140

  C         1.4532562507        0.8732968909       15.1777284407
  C         2.5486274908        1.5881490087       15.7243135298
  C         3.6581579583        2.0725769672       14.9893512411
  C         4.7757385674        2.6359345041       15.6890407018
  C         5.7055284369        3.3833481788       15.0225252471
  C         2.5257975017        1.9455156136       17.2152585293
  C         1.6492292437        2.9902832028       17.5393176660
  C         1.4961807520        3.3969544612       18.9017624403
  C         2.2179828074        2.7697339755       19.8698216373
  C         3.1918876717        1.8131385127       19.4998742218
  C         3.3065773809        1.3096669409       18.1751062599
  H         4.8900140300        2.6238490700       16.7651942190
  H         6.5363279233        3.7972609923       15.6189332393
  H         0.9732234120        3.3533872943       16.7571683939
  H         0.8723672233        4.2702873393       19.1044756075
  H         2.1711847299        2.9227229992       20.9471211198
  H         3.6438306824        1.2140269172       20.3601891842
  H         4.0025385608        0.4905596975       17.8985586448
  C         1.4451965831        0.8552297592       13.7049488089
  C         0.4486272273        0.1258644888       13.0042533549
  C        -0.6730743855       -0.3631079038       13.7572180843
  C        -0.6520383019       -0.3463016267       15.2350153355
  C         0.4168625069        0.2009968319       15.9466903420
  C         3.5991418809        2.0334979239       13.5612514608
  C         2.4581800998        1.4717509688       12.9482421124
  C         2.2699174373        1.8090775066       11.5138601501
  C         1.4174160299        2.8919123739       11.2347245341
  C         1.3121479323        3.4663740965        9.9004656993
  C         2.2785848312        3.0183572689        8.9726309665
  C         3.1858651701        1.9580332619        9.2938208074
  C         3.1664732555        1.3875171513       10.5205447387
  H         3.8001598848        0.5093910217       10.6546011944
  H         3.9395410468        1.6600345488        8.6182275663
  H         2.2008504135        3.2117659019        7.9237613763
  H         0.5445943782        4.1736152042        9.5836185648
  H         0.9710046632        3.3568051997       12.0829075447
  C         4.5560684964        2.8703420612       12.8884038244
  C         5.6396398245        3.4915820152       13.5681560776
  H         6.2852346488        4.1977803337       13.0257353132
  H         4.6169762896        2.8134964206       11.8276610758
  C         0.5753745136       -0.0638252983       17.4233852080
  C         1.4277635102       -1.0973437116       17.8992651501
  C         1.3823107722       -1.4934855824       19.2675586675
  C         0.4937222946       -0.8894848549       20.1475934699
  C        -0.3429308857        0.1578652534       19.6798521483
  C        -0.2339526264        0.5477786568       18.3595278478
  H        -0.6800184545        1.4816567535       18.1035165240
  H        -1.0309541784        0.6192874958       20.4053994864
  H         0.4164838260       -1.3204869385       21.1537435129
  H         1.9789379546       -2.4068021267       19.5962157242
  H         2.1606938974       -1.6251016417       17.2403423453
  C        -1.8147615056       -0.8493285794       15.8900912599
  C        -2.7973297036       -1.5633075522       15.2440793346
  C        -2.7577218375       -1.6949315624       13.8739477232
  C        -1.7188863374       -1.1349154054       13.1764978912
  H        -1.6312530491       -1.3222887482       12.1033977193
  H        -3.5646127119       -2.2809576271       13.4300115158
  H        -3.6098040170       -1.9810926034       15.8494129862
  H        -1.9738853922       -0.8006303394       17.0084323485
  C         0.5579528974       -0.2751321009       11.5887356385
  C         1.5283620162       -1.2931520216       11.2120790066
  C         1.6946844488       -1.7058874061        9.8823640068
  C         0.9328450022       -1.1686604136        8.8243990224
  C        -0.0229308723       -0.2269207664        9.2615443291
  C        -0.2731179803        0.2274115104       10.5842356402
  H        -1.1061354716        0.8735435018       10.7053976981
  H        -0.5896993038        0.1852743228        8.4693275252
  H         1.1529875226       -1.4781707126        7.7710449640
  H         2.4765093978       -2.4588141427        9.6888949639
  H         2.1412938209       -1.8623886974       11.9160459470
  C        -2.2355914836        7.9629908631       14.7659577936
  C        -3.3737551980        8.5638116510       15.4876869771
  C        -4.4233782850        9.1750804863       14.7067179999
  C        -5.5510617791        9.7793643811       15.3333961804
  C        -6.4549403314       10.5890475921       14.6919901316
  C        -3.2626213855        8.9397814118       16.9534503556
  C        -2.6501333858       10.1428532222       17.2947510423
  C        -2.5174627980       10.5190456051       18.6415269710
  C        -3.0538083848        9.7187144980       19.6386646103
  C        -3.8504422030        8.6187951121       19.3158660115
  C        -4.0121650199        8.2784903203       18.0011870778
  H        -5.6204874022        9.6700050907       16.3859428045
  H        -7.1439407659       11.1318369396       15.3340857646
  H        -1.9460684964       10.5791307349       16.6246078620
  H        -1.8764467107       11.3342552086       18.9219141101
  H        -2.9483271720        9.9101423245       20.7134835113
  H        -4.3133281593        7.9474943214       20.0401321284
  H        -4.4944858495        7.3574139184       17.7019597643
  C        -2.2366134180        7.9906824407       13.2966166893
  C        -1.2536201139        7.2794372093       12.6092124938
  C        -0.1380028173        6.6995063161       13.2887521068
  C        -0.0886739669        6.7201017225       14.6792799370
  C        -1.1607367066        7.2927256188       15.4159919569
  C        -4.3308881702        9.2547379002       13.2683787488
  C        -3.2418142816        8.7738516413       12.6006531586
  C        -3.0280475294        8.9899571311       11.1555473820
  C        -2.0970700930        9.9951679070       10.8637567456
  C        -2.0332438529       10.5042433467        9.5703986360
  C        -2.9221045296       10.0990959173        8.6385321224
  C        -3.8501881388        9.1092438525        8.9442540685
  C        -3.8339319212        8.4763293995       10.1749750649
  H        -4.4841785181        7.6362126489       10.3295773436
  H        -4.5741514925        8.7921718954        8.1710049271
  H        -3.0484980102       10.5870970293        7.6534348368
  H        -1.2832446068       11.2102691142        9.3649781441
  H        -1.4069406073       10.4043778968       11.5925080582
  C        -5.3462138562       10.0409865470       12.5714350816
  C        -6.4166841555       10.6513851319       13.2495019156
  H        -7.1147084859       11.2353507955       12.6840479715
  H        -5.3109869531       10.2398893291       11.4810228981
  C        -1.2370714690        7.0353354427       16.9153361750
  C        -1.8540131541        5.9047320017       17.4461230984
  C        -1.6988551872        5.4918876415       18.7387853783
  C        -0.9493185039        6.3522937593       19.5957358202
  C        -0.3680937329        7.4995796514       19.1326058662
  C        -0.3855149312        7.8144218712       17.7690015324
  H         0.1359381349        8.6896640436       17.4365465348
  H         0.1775020823        8.0734530876       19.8489017242
  H        -0.7579181253        6.1546303658       20.6361212649
  H        -2.1549738860        4.6048389871       19.1008775475
  H        -2.4322881641        5.3313357774       16.6699041066
  C         0.9937724348        6.0831577302       15.3169167019
  C         1.9883697683        5.4402543569       14.6168937661
  C         1.9351295632        5.4410871840       13.2201288033
  C         0.8847895998        6.1029934669       12.5481358122
  H         0.8125688950        5.9666881277       11.4607472438
  H         2.6540200426        4.9451557699       12.5751589944
  H         2.7973647347        5.0894622244       15.1866245307
  H         1.1608674580        6.0185188925       16.3489193292
  C        -1.2114412811        6.9354016869       11.1288909613
  C        -1.8911826869        5.7776992572       10.7374751155
  C        -1.8114509274        5.3500209800        9.3730370580
  C        -1.1172254173        6.0677269628        8.3899429461
  C        -0.3797053645        7.1974024026        8.8280076019
  C        -0.4244048457        7.6233905197       10.1664012528
  H         0.1288209145        8.5333765535       10.5296671813
  H         0.3552998992        7.6787255645        8.1445335073
  H        -1.1586840400        5.6363827878        7.3862187237
  H        -2.2968821617        4.4334854801        9.0023940679
  H        -2.6067125356        5.4084675854       11.5235210210
