140

  C        15.5472581168       -1.3594420281        0.3802877428
  C        16.5532577986       -0.6302750731        1.0739959416
  C        17.6787907018       -0.0732957785        0.4423138878
  C        18.7326159218        0.5682258731        1.1161123871
  C        19.7376749395        1.2453509570        0.4358792296
  C        16.5935418114       -0.2626697577        2.5502602329
  C        15.8858443589        0.8237551881        3.0860914337
  C        16.0440077209        1.1453443810        4.4385189150
  C        16.8630201744        0.3462570839        5.2898669199
  C        17.6667577873       -0.6690490542        4.7059735496
  C        17.4775490583       -0.9466842883        3.3728726373
  H        18.7851166000        0.4497549875        2.2025272465
  H        20.5364020968        1.7894470407        0.9015351951
  H        15.2742286597        1.5116641163        2.4445919986
  H        15.3794177720        1.9514643426        4.7832571199
  H        16.9116818879        0.6028742316        6.4046881058
  H        18.4989134839       -1.1793100219        5.1957068117
  H        17.9724403195       -1.7537367896        2.8764128603
  C        15.6560787715       -1.4430617098       -1.0578298467
  C        14.6745328348       -2.1675608520       -1.7870511734
  C        13.5048840196       -2.6824281531       -1.1609275337
  C        13.4707363316       -2.6646184612        0.2430118931
  C        14.4651186055       -2.0181137634        1.0145579837
  C        17.6864724316        0.0528211644       -1.0247929672
  C        16.5575804552       -0.5888630432       -1.6858089313
  C        16.6037320650       -0.2498017542       -3.1557238165
  C        15.8546042293        0.7476573596       -3.7321052747
  C        16.1185695930        1.0578318003       -5.1146942410
  C        17.1623758268        0.5158838583       -5.8080892639
  C        17.9896473843       -0.4784190698       -5.2275190640
  C        17.7195303622       -0.8298412740       -3.9215169806
  H        18.3158518791       -1.6088553373       -3.4025839620
  H        18.7721045737       -0.9477674945       -5.8352818454
  H        17.3974180618        0.7672568488       -6.8088020140
  H        15.4651098848        1.7965177632       -5.5330204240
  H        15.1065013855        1.3125865134       -3.1663257792
  C        18.6883790119        0.8052032896       -1.6763549497
  C        19.7134475369        1.4118138406       -0.9400753562
  H        20.5063867771        1.9940747174       -1.4906405641
  H        18.6963865452        0.9615392796       -2.6740648184
  C        14.5740936494       -2.4367612365        2.4427116553
  C        15.3666331754       -3.4954829160        2.7949462928
  C        15.6170665704       -3.8231930408        4.1553209119
  C        14.9417300878       -3.1476753986        5.1420343031
  C        14.0701709797       -2.0565996280        4.8237476859
  C        13.9285411312       -1.6903772587        3.4989087324
  H        13.3593647646       -0.7962598102        3.1689158290
  H        13.6404412527       -1.5747752276        5.6602051453
  H        15.1767175806       -3.4624298369        6.1561055826
  H        16.1359135884       -4.7830283771        4.3550578219
  H        15.7880655464       -4.0419674081        2.0602190655
  C        12.3279538349       -3.3024958211        0.9399698155
  C        11.3526026873       -3.8708743484        0.2099324527
  C        11.3724411001       -3.8149522973       -1.2156577468
  C        12.3697373523       -3.1443102620       -1.8473792823
  H        12.3851831378       -3.0106744385       -2.9515937151
  H        10.5479082757       -4.3459453473       -1.7119067351
  H        10.4932548518       -4.3392342413        0.7287627542
  H        12.3780267794       -3.3871260576        2.0572111744
  C        14.8038463382       -2.5039800541       -3.2506972847
  C        15.8778005879       -3.3821860352       -3.5904842043
  C        15.9450821515       -3.9459866707       -4.8894329017
  C        15.0392121356       -3.5236517990       -5.8241320851
  C        14.2170208067       -2.4494558264       -5.5898531042
  C        14.0142447167       -1.9493771380       -4.2737951683
  H        13.2009208036       -1.2007264073       -4.0998543880
  H        13.5406751455       -2.1620871058       -6.3478898443
  H        15.0719935689       -4.0455835189       -6.7858035745
  H        16.7222788188       -4.7114231613       -5.0459425631
  H        16.5833174156       -3.5799831989       -2.8447456113
  C        11.9739677639        5.8836030531        0.4727053972
  C        10.9374915633        6.5591843653        1.2245067794
  C         9.8345077312        7.0508581577        0.5095718214
  C         8.6872056701        7.7089189796        1.1294678553
  C         7.6772652900        8.2139555283        0.3589805809
  C        11.0863088809        7.0422183699        2.6185170341
  C        11.8276729090        8.2603187305        2.7511505859
  C        12.1651776261        8.8436255204        3.9896469494
  C        11.5385881044        8.3292540228        5.1213244269
  C        10.7320922215        7.1619748764        4.9999042871
  C        10.5729783568        6.5075229567        3.7479402551
  H         8.5050027688        7.5988666243        2.2119924507
  H         6.7995545284        8.7002317417        0.7750204259
  H        12.3289249844        8.6216201742        1.8725910553
  H        12.8745454619        9.6516884978        4.0470165908
  H        11.6510339804        8.5883067096        6.1282445823
  H        10.1822305519        6.7734756300        5.8524931961
  H        10.0829369781        5.5099287336        3.7092089119
  C        11.9770134666        5.8021115965       -0.9546134470
  C        13.0084122523        5.1136643309       -1.6673114416
  C        14.2097420151        4.6750295261       -0.9638904027
  C        14.1997238934        4.7218225167        0.5421752020
  C        13.0766211604        5.2157031227        1.1666535207
  C         9.8750969670        7.0864556111       -0.9485537289
  C        11.0063650713        6.5881523669       -1.6491906887
  C        10.9841422771        6.8667707615       -3.1266874851
  C        11.6803069960        8.0009506761       -3.5488110666
  C        11.8590902459        8.2832697005       -4.9031792825
  C        11.1627908053        7.4189406331       -5.8135774221
  C        10.4151806699        6.3121297119       -5.4213472689
  C        10.3316702577        6.0201299370       -4.0429244530
  H         9.7885676529        5.1747631643       -3.7539505671
  H         9.9127108818        5.6732307458       -6.1711077982
  H        11.3328492375        7.5909248584       -6.8421586783
  H        12.4954111256        9.0744468316       -5.2897036425
  H        12.2309044955        8.5666117877       -2.7209154080
  C         8.7874805981        7.6689513087       -1.6532187389
  C         7.7347972654        8.2902656214       -1.0304722299
  H         6.8800806513        8.6479250439       -1.5603041453
  H         8.8348151284        7.7815481535       -2.7265387865
  C        13.1276901552        5.0071594177        2.6252509653
  C        12.6994311111        3.8026310640        3.1854364249
  C        12.8071645129        3.6006855293        4.5853617534
  C        13.5875591525        4.5390162685        5.3283767974
  C        14.1568566683        5.6269528399        4.6952108866
  C        13.9141038360        5.8755570460        3.3715800550
  H        14.4496861721        6.6993751036        2.9076495268
  H        14.8751405665        6.2099500977        5.2383761106
  H        13.7873652645        4.3537381845        6.3374565173
  H        12.4032746481        2.7240535478        5.1216798773
  H        12.1576264976        3.0609202418        2.5880629087
  C        15.2259907275        3.9873424047        1.2592677734
  C        16.2200593642        3.2726915918        0.5672759235
  C        16.2742625988        3.4369123763       -0.8349978439
  C        15.3954993466        4.1357234541       -1.6065934126
  H        15.5665608062        4.1420640539       -2.7136933278
  H        17.1568481639        3.0585772427       -1.3611689452
  H        16.9247827223        2.6002798783        1.1084809317
  H        15.1162648997        3.8145097845        2.2913036239
  C        12.9120304801        4.7978042030       -3.1381976232
  C        12.1832838910        3.6582226330       -3.5895572739
  C        12.1801984380        3.3635645686       -4.9834675463
  C        12.9684854384        4.1025541797       -5.8695051603
  C        13.8756380390        5.0058023506       -5.3390835547
  C        13.8283689076        5.3937303712       -4.0488576130
  H        14.4915019318        6.1460967347       -3.6194290936
  H        14.5363067236        5.5954712343       -6.0587824059
  H        12.9268713304        3.9037216241       -6.9610606677
  H        11.5243952067        2.5806842263       -5.2528520889
  H        11.5160121322        2.9992781651       -2.8379489581
