140

  C        12.2857926556        1.2041436693        1.4630232700
  C        13.3321632684        1.9319051378        2.1450612090
  C        14.3759091806        2.5474734323        1.4162677092
  C        15.4405218040        3.2098664337        2.0808770475
  C        16.5524107778        3.6700124412        1.4564392204
  C        13.2403469364        2.2055880610        3.6089043631
  C        12.2850656019        3.1629807173        4.0361473180
  C        12.3201536012        3.4992621845        5.3920740140
  C        13.2671515891        2.9325399884        6.2924103373
  C        14.2261800945        2.1008769772        5.8285917844
  C        14.1676632264        1.6733054414        4.4889823009
  H        15.4573194361        3.2042154836        3.1504573933
  H        17.3058325979        4.1394453067        2.0030999085
  H        11.7127174039        3.7958002161        3.3513722828
  H        11.5213893399        4.0992048678        5.8100167980
  H        13.1938708213        3.2082969741        7.3308719248
  H        15.0032154263        1.6537372504        6.4792627583
  H        14.9474716140        0.9883568853        4.1011653640
  C        12.3169233027        1.2496245485       -0.0220585713
  C        11.3409401450        0.5613412921       -0.7311753926
  C        10.3042177386       -0.1323656376       -0.0704974885
  C        10.2855039218       -0.1889554850        1.3551866121
  C        11.3194206233        0.3834931056        2.1907704304
  C        14.4878470183        2.4252668665       -0.0088801203
  C        13.3514134499        1.9243134923       -0.6667500129
  C        13.2868101408        2.1848497038       -2.1028248969
  C        12.5950537599        3.3419337168       -2.4669547061
  C        12.5903556427        3.7481967863       -3.8052761814
  C        13.4301221253        3.0716650862       -4.7573980371
  C        14.3174418247        2.0440459716       -4.3550136460
  C        14.2028967876        1.6375422532       -3.0240146874
  H        14.7990978359        0.8133443737       -2.6702528724
  H        15.0294505469        1.4907702942       -5.0968694520
  H        13.4964785028        3.5082825250       -5.7598579743
  H        11.9376087048        4.5418812218       -4.1423062258
  H        11.9871871863        3.8801823495       -1.7227660422
  C        15.6341548388        2.9247198199       -0.7173586824
  C        16.6592970016        3.5281462075        0.0387680386
  H        17.4994912773        3.9038811105       -0.4908429127
  H        15.7298641116        2.9087444886       -1.7713183162
  C        11.4435253508        0.0124592684        3.6003300434
  C        12.3179803840       -1.0055771169        4.0326586856
  C        12.3364675611       -1.4215023220        5.4139229623
  C        11.4714576223       -0.7249590032        6.3325510030
  C        10.6597568486        0.3192534017        5.8772554340
  C        10.5829905594        0.6923604133        4.5136824556
  H         9.9061519718        1.4918525848        4.1770182494
  H         9.9292388510        0.7815280808        6.5210638357
  H        11.5078499924       -0.9254619641        7.3982728902
  H        13.0093817972       -2.2438872035        5.6264555974
  H        12.7904230373       -1.6979195865        3.3120311977
  C         9.1678895165       -0.8906232654        1.9945124965
  C         8.2203960418       -1.6295338795        1.3569093441
  C         8.2833777706       -1.5806240482       -0.0285395617
  C         9.3073739213       -0.9149675297       -0.7212382930
  H         9.5182316265       -1.1799506657       -1.7365907521
  H         7.7616090113       -2.3602346133       -0.5680239822
  H         7.4446096326       -2.1050297918        1.9613502108
  H         9.2025540737       -0.9266145512        3.1046753156
  C        11.4770053742        0.1185532052       -2.0941320195
  C        12.1273369128       -1.1018999203       -2.3168541194
  C        12.1061535865       -1.6632966037       -3.6203065406
  C        11.2925268069       -1.1402807876       -4.6215467646
  C        10.5170419741        0.0111998140       -4.3207169469
  C        10.6265311511        0.6517862953       -3.1246595683
  H        10.1725839737        1.6313888997       -3.0239535729
  H         9.8946865241        0.3480932771       -5.1250383703
  H        11.1470746013       -1.6015049098       -5.5707871573
  H        12.7506942606       -2.5636146971       -3.8624226157
  H        12.6929483043       -1.4599570292       -1.5061271640
  C         8.7443929744        8.3632635045        1.5609372150
  C         7.6922729473        9.0160097746        2.3136998298
  C         6.5527807699        9.5671345958        1.6145458782
  C         5.5205426027       10.2148608238        2.3613535443
  C         4.3935535901       10.7200778234        1.6866191367
  C         7.7006451377        9.2980974742        3.7495262634
  C         8.5806469342       10.3357673256        4.1860221762
  C         8.6016555371       10.7598043282        5.5119565529
  C         7.8322809701       10.1255871216        6.4709488358
  C         6.9826407069        9.0313105506        6.0826848546
  C         6.9026569351        8.6855750122        4.7287637628
  H         5.6617611176       10.4334738228        3.3975222515
  H         3.6995739174       11.2658863818        2.2787767811
  H         9.3122194604       10.7309634011        3.4935171296
  H         9.2181360571       11.6073953855        5.7708971442
  H         7.8321980622       10.4643049651        7.5372235035
  H         6.4012350513        8.4489482257        6.8014539656
  H         6.1057304681        8.0394053628        4.4404360456
  C         8.6675316894        8.3632629042        0.0982618185
  C         9.7318249406        7.7796594534       -0.5893386890
  C        10.8206023658        7.1756653994        0.0373869022
  C        10.8568914960        7.1648245360        1.4633159615
  C         9.8347339914        7.7075235906        2.2394496337
  C         6.4765594139        9.5124151282        0.1923249018
  C         7.5786845930        9.0245151198       -0.5439947168
  C         7.4385723886        9.2214216143       -2.0612337790
  C         8.1242302810       10.2170039090       -2.7290445495
  C         8.0366374838       10.3656852995       -4.1170807939
  C         7.2027648130        9.4966997572       -4.8093865715
  C         6.3736445414        8.6460542613       -4.1289066976
  C         6.4621045788        8.5386342371       -2.7523196549
  H         5.8057353349        7.8220280384       -2.2537596377
  H         5.6932707980        7.9340523466       -4.6228340249
  H         7.1688884411        9.6650529214       -5.9344302481
  H         8.5525945602       11.1600514703       -4.6169368550
  H         8.9422988573       10.6704324686       -2.1450231606
  C         5.3261704492       10.1463527021       -0.3816873267
  C         4.2830913623       10.6387981515        0.2964747203
  H         3.4484825224       11.1625536169       -0.1980719125
  H         5.1432607437       10.1925119050       -1.4475506670
  C         9.8330474861        7.3863494439        3.6904513970
  C         8.9039092823        6.3915200374        4.1975498459
  C         8.7531368995        6.1442292613        5.5911166562
  C         9.6464925466        6.7984456547        6.4742213146
  C        10.7180878222        7.5396369475        5.9686507100
  C        10.6669925729        7.9540005013        4.6502240732
  H        11.4688783205        8.5729173193        4.2161068447
  H        11.3426595078        7.9570991124        6.7306151009
  H         9.4740098909        6.4734662837        7.5116656341
  H         7.9973814509        5.4554957347        5.9850806192
  H         8.1924734203        5.9685215367        3.5044090809
  C        11.9560182485        6.5858332152        2.0962573554
  C        12.9690825885        5.8958959129        1.5063851840
  C        12.9546621329        5.8738680639        0.0587455101
  C        11.8866805399        6.4845341550       -0.6166122777
  H        11.7241535652        6.3561742631       -1.7157514077
  H        13.6996703982        5.2614971371       -0.4879690149
  H        13.6503402513        5.2600107396        2.1100747547
  H        11.9540853114        6.5891682973        3.1700494542
  C         9.6060890574        7.4368407352       -2.0277337055
  C         8.9288737484        6.2847857301       -2.4199582287
  C         8.8385899186        5.7256509640       -3.6681467274
  C         9.6228860773        6.3717343582       -4.6357588283
  C        10.3700588729        7.5089129711       -4.2684638210
  C        10.3772009880        8.0618689558       -2.9619715613
  H        11.1143544124        8.8781571422       -2.7887809052
  H        10.9776930734        8.0035777056       -5.0626618635
  H         9.6101361992        6.1475934095       -5.7209615182
  H         8.2660203114        4.8061138372       -3.7788558008
  H         8.4243163590        5.7776451969       -1.6053358198
