140

  C        13.5303666505        0.2058557121        0.9486253813
  C        14.4813733696        0.9029920931        1.7578963239
  C        15.6274086080        1.5539153435        1.1525018249
  C        16.6677454811        2.2679089902        1.8411131259
  C        17.7611137463        2.8132400321        1.2459958071
  C        14.4399600142        1.1883683356        3.2221508030
  C        13.7575059906        2.3695841501        3.5910937727
  C        13.9217363460        2.7939019419        4.9349434611
  C        14.6521898834        2.1415812386        5.8630138293
  C        15.3858982212        1.0385040902        5.4571418570
  C        15.2289603073        0.5893287146        4.1650893532
  H        16.5063897005        2.2689455692        2.9489236257
  H        18.5564351577        3.2888035801        1.8802206197
  H        13.1333234334        3.0198405989        3.0065316570
  H        13.2775861240        3.6228098264        5.2131811090
  H        14.7132723567        2.5593479277        6.8437705840
  H        16.0004852554        0.4932139113        6.1765836838
  H        15.6898707533       -0.3337111882        3.8634539179
  C        13.6385711467        0.2142684832       -0.5176468012
  C        12.6658912123       -0.5907329918       -1.2908227916
  C        11.5550920007       -1.1965118702       -0.6180083827
  C        11.5412392631       -1.2183844126        0.8120728447
  C        12.5806347145       -0.6486439756        1.5889158607
  C        15.6601129436        1.6445980349       -0.3003280489
  C        14.6681020158        1.0389046275       -1.0929471439
  C        14.6150806589        1.3451009278       -2.5289773458
  C        14.0081390608        2.5732912512       -2.8900812418
  C        14.0953745125        3.0909929699       -4.2036520454
  C        14.9988923504        2.4533126598       -5.1508694221
  C        15.5803967921        1.2623016860       -4.7194679784
  C        15.3849186130        0.6729456630       -3.4632904540
  H        15.8500142388       -0.2662372906       -3.2217697517
  H        16.1661126314        0.7270329830       -5.4389040532
  H        15.1802807553        2.8536177542       -6.1491200401
  H        13.5834839293        4.0127209993       -4.5256727172
  H        13.4919480412        3.0654137571       -2.0936331240
  C        16.7498953487        2.3059581831       -0.8899627991
  C        17.8480766175        2.8125622133       -0.1870693875
  H        18.6771219012        3.3548999404       -0.6965726035
  H        16.7843774776        2.5269398093       -1.9305104320
  C        12.6855923521       -1.0833944611        3.0536751411
  C        13.4019722837       -2.1886372454        3.4599305601
  C        13.4867656808       -2.5657544098        4.7936194693
  C        12.9218210228       -1.7634674566        5.7833777180
  C        12.1035130949       -0.6443673016        5.4252077656
  C        11.9475868745       -0.3892944360        4.0545920320
  H        11.4002731289        0.5222731648        3.7259364700
  H        11.8211920229        0.1206089859        6.1515969188
  H        13.1175113167       -2.0236527685        6.8715566679
  H        14.0413155834       -3.4655660846        5.2273997592
  H        14.0051858029       -2.7837032614        2.7474253336
  C        10.3640168233       -1.7930536403        1.4733469269
  C         9.2588622604       -2.1950623050        0.8020881931
  C         9.3119378271       -2.2451274348       -0.6306993054
  C        10.4146445239       -1.7470717975       -1.2896371193
  H        10.5063896417       -1.5707644569       -2.3564908034
  H         8.5139044741       -2.6957317463       -1.1533287936
  H         8.4753382484       -2.6695302292        1.3833899238
  H        10.3179954321       -1.7492138656        2.5507138444
  C        12.7414940802       -0.8180786508       -2.8359123064
  C        13.4402096063       -2.0145945848       -3.1586474383
  C        13.4004619126       -2.4212463442       -4.4921810178
  C        12.7059966145       -1.7248674334       -5.4589296735
  C        12.1386196383       -0.5160330255       -5.1007657416
  C        12.1043308317       -0.0806461804       -3.8048596649
  H        11.6468332809        0.8830314759       -3.6792097302
  H        11.5431317946        0.0818107065       -5.8151249176
  H        12.7630494240       -1.9818998649       -6.5010640744
  H        14.0369618698       -3.2288981434       -4.8908459712
  H        13.9396067811       -2.6554858340       -2.4980890438
  C        10.0546950959        7.3345696226        1.1687005596
  C         9.0473078216        8.0435641710        1.9488246542
  C         7.9064351411        8.4746411273        1.3010230960
  C         6.8903820755        9.1713600989        2.0377659171
  C         5.8058959041        9.6105416809        1.4263405579
  C         9.1955773974        8.5116409344        3.4005902111
  C        10.1041771525        9.5377823976        3.6889144586
  C        10.0763050300       10.1772816703        4.9845141521
  C         9.2581372524        9.6106267509        5.9952187267
  C         8.4156014866        8.5486295237        5.6640567761
  C         8.3690747774        8.0131464491        4.3903208195
  H         7.0047529208        9.3945888474        3.1282347635
  H         5.0340551622       10.1028277219        2.0066572433
  H        10.6026031207        9.9774100941        2.8118673457
  H        10.7064429491       11.0491098782        5.0973140088
  H         9.4606046339       10.0144332775        6.9921920115
  H         7.7537644701        8.1860453408        6.4084830624
  H         7.7260639025        7.1804851424        4.1748385219
  C         9.9977760761        7.3803698315       -0.2920326723
  C        11.0149048395        6.6798825146       -0.9806472051
  C        12.0792904250        6.0970100663       -0.2935725092
  C        12.1131763709        5.9907217301        1.1902814656
  C        11.1389751657        6.7304919025        1.8944188410
  C         7.7483499958        8.3990233190       -0.1696273061
  C         8.8546681577        8.0385588048       -0.9620553736
  C         8.8782360961        8.4350929206       -2.3768479494
  C         9.6073210141        9.5539230763       -2.8693186041
  C         9.5770432834       10.0213130012       -4.1658805026
  C         8.8070551641        9.3219683780       -5.1124635570
  C         7.9677934740        8.3075844668       -4.6421895339
  C         8.0467934237        7.8274160310       -3.3336684502
  H         7.2953789035        7.0929266881       -2.8814496273
  H         7.1890771217        7.8588823056       -5.2467072840
  H         8.6808590768        9.6820245509       -6.1206547275
  H        10.2385637632       10.8925509556       -4.4192659510
  H        10.1684260459       10.1598157534       -2.1932729835
  C         6.5687924473        8.9528426736       -0.7701117318
  C         5.6549320097        9.5808443654       -0.0362053747
  H         4.8273023018       10.0338805769       -0.5167059675
  H         6.3368794008        8.8700348830       -1.8055377846
  C        11.1014038162        6.3899447739        3.3862680142
  C        10.5160600453        5.0860579539        3.6941593125
  C        10.6794357979        4.5979618175        5.0506915550
  C        11.4555418518        5.3646109423        5.9164272740
  C        12.0939484456        6.5098595020        5.5554311123
  C        11.9975691418        7.0582168888        4.2594691289
  H        12.4952477252        7.9448641905        3.9544537998
  H        12.5577343854        7.1800175953        6.3173302256
  H        11.5409352357        4.8824147473        6.9102448635
  H        10.0556702552        3.7451332860        5.3250616751
  H         9.9386546255        4.7176511154        2.8305513468
  C        13.2122180080        5.3683398626        1.8061852941
  C        14.2808619688        4.8211156974        1.1258064283
  C        14.2936605906        5.0562827777       -0.3028288983
  C        13.2660276908        5.6603396511       -0.9826292200
  H        13.4015885463        5.9444539742       -1.9978705428
  H        15.2103203060        4.7620936974       -0.8409323063
  H        15.2267807625        4.4282425725        1.5349897363
  H        13.2574341454        5.3210568745        2.8944586181
  C        11.0875411543        6.3250802745       -2.4184347626
  C        10.5518403631        5.0595259221       -2.9271311297
  C        10.9504312841        4.6887314436       -4.2010497859
  C        11.6391943424        5.5576289961       -5.0962430148
  C        12.0228859683        6.8513443099       -4.6878981297
  C        11.8052723505        7.1425799588       -3.3178688214
  H        12.2844879686        8.0348851320       -3.0452840901
  H        12.4249222151        7.5526988486       -5.3845556439
  H        11.8258202735        5.2394244742       -6.1514261912
  H        10.6296135075        3.7062215948       -4.6124640859
  H         9.8675083105        4.5324802310       -2.2804116016
