140

  C         4.1019075127       -0.7764462731       13.6508694371
  C         5.1459684877       -0.0038149663       14.2779445766
  C         6.2386268564        0.5243208462       13.6268205398
  C         7.3653760759        1.1943817071       14.2319927946
  C         8.3865431052        1.9015783152       13.5782382337
  C         5.1778753018        0.2300428193       15.7850115370
  C         4.5054924691        1.3408530268       16.2988355415
  C         4.6420266276        1.6850624820       17.6688317110
  C         5.4952599482        1.0593407218       18.5071062497
  C         6.2115553419       -0.0423906002       18.0178341156
  C         6.0947326017       -0.4453824578       16.7064861377
  H         7.3298605726        1.1914792777       15.3675381112
  H         9.1546081686        2.3622580067       14.1537863592
  H         3.7537554077        1.9242139101       15.7098663680
  H         4.0239191370        2.5111195805       18.0692838431
  H         5.5173612856        1.3385662936       19.5496552998
  H         6.9260531795       -0.5866376546       18.7410453154
  H         6.7224661273       -1.3260054788       16.3294760186
  C         3.9870046251       -0.7729733235       12.1955392541
  C         2.9957102204       -1.5894045719       11.5607398019
  C         1.9912052650       -2.2109065406       12.3266709195
  C         2.0484055542       -2.1885914215       13.7619018050
  C         3.1956075630       -1.5911198588       14.3763761181
  C         6.1177942500        0.5386156081       12.1715580620
  C         4.9736407856       -0.0123314184       11.4671329561
  C         4.9462083030        0.1920736423        9.9708011866
  C         3.9553708785        1.1094818177        9.4666299248
  C         3.9030253918        1.5761605344        8.1608779999
  C         4.9338900956        1.0611563692        7.2614164979
  C         5.7021541845        0.0005823053        7.6274551538
  C         5.8008185160       -0.4093975464        8.9802317421
  H         6.5149845679       -1.2300514346        9.2093348350
  H         6.3413783844       -0.5128251720        6.9137631575
  H         5.0599837319        1.3414517694        6.2479281717
  H         3.1654354480        2.3220818089        7.9089291258
  H         3.1558911473        1.4405592573       10.1160729605
  C         7.2504519139        1.2042477853       11.4760676297
  C         8.3220182912        1.7476744523       12.1462841773
  H         9.0982285134        2.2148876465       11.5819474191
  H         7.2927178783        1.2435822161       10.3851744366
  C         3.3944189764       -1.8656919347       15.8903464413
  C         4.2940820420       -2.8933796956       16.2372771078
  C         4.3774521662       -3.4064602216       17.5928436054
  C         3.4071531051       -3.0319558799       18.5101578103
  C         2.5874698394       -1.9548870885       18.2655686758
  C         2.6350555140       -1.3510217820       16.9584584302
  H         1.9426661116       -0.4644465054       16.8543557039
  H         1.8244430772       -1.6919848057       18.9517857066
  H         3.3655107582       -3.5044738391       19.5051896162
  H         5.1246056349       -4.1480010392       17.7206516772
  H         5.0117939280       -3.1614739808       15.4846375668
  C         0.9917475701       -2.7732871039       14.5915122893
  C         0.0268339348       -3.5203700371       13.9766903285
  C         0.0418250727       -3.6386240577       12.6038341436
  C         0.9246732796       -3.0446691841       11.7529852459
  H         0.8064908892       -3.2577769916       10.7290217110
  H        -0.6889924098       -4.2792333811       12.1076543314
  H        -0.8189217073       -3.9577388233       14.5294895370
  H         0.9028166047       -2.5457520887       15.6409735890
  C         3.0964160868       -2.0174787908       10.0944711143
  C         4.0602475551       -2.9075738264        9.6180785064
  C         4.0721321114       -3.2229065576        8.2245997888
  C         3.1824052337       -2.6949521657        7.3952394721
  C         2.2002522338       -1.7952562590        7.8702727124
  C         2.0280434100       -1.5327642036        9.2371199999
  H         1.2908146556       -0.8192205558        9.5597615137
  H         1.5993614815       -1.1783571949        7.2322915442
  H         3.2490907830       -2.8251809836        6.3297441160
  H         4.8912064405       -3.8622913363        7.8599343635
  H         4.8116420664       -3.2167925734       10.3602774441
  C         0.6216542205        6.2984773075       14.1027455317
  C        -0.3839438470        6.9338196730       14.8624163196
  C        -1.5530935309        7.4425794596       14.1321702468
  C        -2.5522137376        8.1563675267       14.8347468521
  C        -3.6014959860        8.8447930402       14.2020565665
  C        -0.3626734800        7.2949484415       16.3768660455
  C         0.3190079093        8.4575953565       16.6991737189
  C         0.2169018816        8.9556085721       18.0399174483
  C        -0.4842030876        8.3043596019       19.0380021707
  C        -1.1704315380        7.1549182945       18.6311320077
  C        -1.0388128201        6.6194681841       17.4221761717
  H        -2.5214376279        8.2406899864       15.9377112986
  H        -4.4652663644        9.3762642521       14.6710560438
  H         0.7909203224        9.0750521915       15.9597114021
  H         0.8032202225        9.8102339643       18.3919263564
  H        -0.5159358836        8.5786040454       20.1381311753
  H        -1.8123089155        6.6514097732       19.3577038054
  H        -1.5417707240        5.7070343186       17.1983555450
  C         0.5557006158        6.2489007176       12.6519021510
  C         1.5479757361        5.5576858096       11.9340035043
  C         2.6732893992        5.1008190107       12.6071068900
  C         2.7405568183        5.0954891334       14.0530052181
  C         1.6668816673        5.5755908063       14.7678399710
  C        -1.5839668891        7.4591785158       12.6710583924
  C        -0.5055636188        6.9493495074       11.9254174030
  C        -0.4103370128        7.4374860813       10.5046103136
  C         0.4456497347        8.4641026249       10.2123414913
  C         0.4584991501        9.0081950141        8.8939502434
  C        -0.3190777332        8.4445342723        7.9249547564
  C        -1.1840081819        7.3814979604        8.2216057294
  C        -1.2329568291        6.8798772583        9.5051481878
  H        -1.9166828355        6.1043449249        9.7577758587
  H        -1.7891052989        6.9557321518        7.4042526685
  H        -0.2591221154        8.8180682822        6.9335689991
  H         1.0666934724        9.8639380861        8.6775640485
  H         0.9534920187        8.9357162224       11.0900525918
  C        -2.6490322353        8.1518528097       12.0512049885
  C        -3.6133317327        8.8227924381       12.7461466135
  H        -4.3897271573        9.3505276625       12.1696832079
  H        -2.7226764071        8.1532832376       10.9835418840
  C         1.7235661028        5.1352805276       16.2487783520
  C         1.0953630404        3.9625611912       16.6861040119
  C         1.1916133816        3.5614960262       18.0235330268
  C         1.9198769207        4.3191465285       18.9235705509
  C         2.6242489059        5.4247386018       18.5216281825
  C         2.4853304851        5.8575680404       17.1988434304
  H         2.9331342238        6.7993283618       16.7988528302
  H         3.3203904412        5.7927129280       19.2597763058
  H         1.9401256862        4.0363418939       20.0164553919
  H         0.5829360719        2.7741329784       18.3820713145
  H         0.5906949168        3.3554516561       15.9805037454
  C         3.8785061308        4.4780781545       14.7389845973
  C         4.9405029998        4.0515897084       13.9824169500
  C         4.8775710830        4.0035367208       12.5688797469
  C         3.7769715106        4.4615093405       11.9365118791
  H         3.7105235056        4.4278730037       10.8501862530
  H         5.6771646756        3.5532513546       11.9745524872
  H         5.8414910370        3.6271963577       14.3598032001
  H         3.9900282614        4.5238347262       15.8271335027
  C         1.4075961797        5.3610236870       10.4487463241
  C         0.4110887754        4.4615675660        9.8543511928
  C         0.4741099881        4.0709850736        8.5145199774
  C         1.3632397126        4.7551086341        7.6389865676
  C         2.3419378449        5.5894821061        8.1855557328
  C         2.3516753628        5.9244887531        9.5595066777
  H         3.0739360530        6.6201555742        9.9322489418
  H         3.0384368430        6.0592223974        7.5280080518
  H         1.2790378070        4.6645682937        6.6066644410
  H        -0.2406665253        3.3987926220        8.0915637485
  H        -0.4471504620        4.0152078314       10.3530738656
