140

  C         4.0332193497       -0.4540063918       14.4871420255
  C         5.0959597986        0.3089860104       15.0764405750
  C         6.1891993619        0.7591540672       14.2577832600
  C         7.2844679580        1.3370841151       14.9514130753
  C         8.3938903915        1.7419200302       14.2463289776
  C         5.0989442193        0.5770318751       16.5440527827
  C         4.4132253799        1.7090848990       17.0146878467
  C         4.2544340657        2.0096726203       18.3430262824
  C         5.0185961612        1.3163530070       19.2673002047
  C         5.7698921290        0.1932937862       18.8530999869
  C         5.8143624647       -0.1760912547       17.4998817143
  H         7.3194881783        1.3288315558       16.0244693054
  H         9.2759264829        2.1536736184       14.7733128614
  H         3.8355575783        2.2977135267       16.2581114462
  H         3.5327119327        2.8032463718       18.6433402000
  H         4.8081901737        1.5006702823       20.3000674281
  H         6.2737070523       -0.3547845413       19.5752952704
  H         6.4274406810       -1.0193836959       17.1568411571
  C         4.0437261666       -0.5396465261       12.9711287808
  C         3.0206534484       -1.4028075891       12.3405741197
  C         2.0081238229       -1.9822688890       13.0899716072
  C         1.9971515104       -1.9112784245       14.5386465942
  C         3.1190833347       -1.2720389562       15.2288959884
  C         6.2023436044        0.7293900210       12.7916608858
  C         5.0852831430        0.0997814212       12.1575254314
  C         4.9875752037        0.4159317475       10.6722768853
  C         4.1433056140        1.4335678432       10.3075460419
  C         4.1909747428        2.0885058528        9.0726605724
  C         5.1915836178        1.5997233217        8.1545588690
  C         6.1137036274        0.5930894887        8.5689737154
  C         5.9423740451       -0.0492353994        9.7694660280
  H         6.4476883612       -0.9134321402       10.1196973509
  H         6.7686812671        0.2754032432        7.7273849818
  H         5.2356454756        1.9473959736        7.1037258514
  H         3.4921677045        2.9179073893        8.8151064965
  H         3.4661823739        1.7969615128       11.1689108853
  C         7.3801549011        1.2063265150       12.0629672067
  C         8.3918817404        1.7995734440       12.8093850045
  H         9.2727771999        2.3249284877       12.2999040073
  H         7.5094805512        1.2631505642       10.9797255284
  C         3.2757246819       -1.6685796524       16.6312096511
  C         4.1294987522       -2.6951087113       16.9941412448
  C         4.1250775545       -3.2457378698       18.3039661115
  C         3.3533932167       -2.6897796072       19.3279679131
  C         2.5311715048       -1.6074818662       18.9145597074
  C         2.4564541966       -1.1577069453       17.6160654404
  H         1.8719396239       -0.2606376287       17.3640323898
  H         1.8373317327       -1.1280538133       19.5820759618
  H         3.4525508238       -3.0753905324       20.3367907211
  H         4.7899259494       -4.0601887093       18.5056925298
  H         4.8440336230       -3.0627025270       16.2460159638
  C         0.9483449121       -2.5756413594       15.2499141365
  C        -0.1159531076       -3.0309680809       14.5180101371
  C        -0.2422607098       -2.9543631523       13.0927012184
  C         0.8789496343       -2.5834687735       12.4000937863
  H         0.9892431975       -2.5426438055       11.2902257920
  H        -1.1055822982       -3.4481486652       12.6012744522
  H        -0.8889329861       -3.5341742575       15.1004171489
  H         0.9389914817       -2.8183967894       16.3016713540
  C         3.1292622059       -1.6638452181       10.8516152441
  C         3.9450369315       -2.7148626529       10.5333171501
  C         4.1054903557       -3.2258816863        9.2478812931
  C         3.5577803582       -2.5501952991        8.1320670705
  C         2.7685933967       -1.4763827596        8.4862222024
  C         2.5327181624       -1.0184764890        9.7968528757
  H         1.9026032255       -0.1015205924        9.9764871674
  H         2.2819780236       -0.9867427409        7.5971558713
  H         3.8199292813       -2.8752885615        7.1406679743
  H         4.8936194398       -4.0603704685        9.1432644050
  H         4.5292437142       -3.2110567907       11.3101509165
  C         0.7511198152        6.4951008184       14.2075488624
  C        -0.2724146099        7.1860285615       15.0127803014
  C        -1.2797627813        7.8929618241       14.3675295810
  C        -2.3000242698        8.5740476766       15.0998772327
  C        -3.2786705327        9.2894359358       14.4536944613
  C        -0.2234228195        7.4447617861       16.4939524894
  C         0.5588377703        8.5390536541       16.8509524051
  C         0.7004204620        8.9350238808       18.1614491466
  C        -0.0390662459        8.3587300272       19.1557136198
  C        -0.9381023778        7.3807781144       18.7296395760
  C        -1.0361809879        6.8748863435       17.4712029136
  H        -2.3535546749        8.4381639511       16.1531955674
  H        -4.0037066523        9.8680262159       15.0363239518
  H         1.2236282534        8.9670562035       16.0830793696
  H         1.5113669403        9.5878189223       18.3958900250
  H        -0.0111453079        8.7111698813       20.1802290089
  H        -1.5466104058        6.9124190208       19.4983385805
  H        -1.7587913112        6.0559493052       17.1313837720
  C         0.7506119560        6.6189340364       12.7197040090
  C         1.6923394197        5.9037060375       11.9477052920
  C         2.7929777487        5.2909471937       12.6356082870
  C         2.8558809512        5.2466451101       14.0580943217
  C         1.7407181699        5.6581520824       14.7771414393
  C        -1.3089005751        8.0149178823       12.8947277980
  C        -0.3203504973        7.3156926927       12.1090037230
  C        -0.4135811568        7.5885094489       10.6470048578
  C         0.3766786647        8.6766052188       10.2423057352
  C         0.1982548491        9.2302020363        8.9324000431
  C        -0.8069827368        8.7411003983        8.1268217515
  C        -1.5252113394        7.6024631943        8.4779482990
  C        -1.3534215499        7.0408685207        9.7531239422
  H        -1.9270715697        6.1948992942       10.1506347475
  H        -2.2837282623        7.2128559211        7.7863933395
  H        -1.0424527099        9.1962783302        7.1750476893
  H         0.7762546638        9.9991447736        8.5630394414
  H         1.0925629399        9.0966566494       10.9437191838
  C        -2.4013528932        8.7394966276       12.2920620542
  C        -3.3180113311        9.3831233026       13.0389538270
  H        -4.1464540544        9.9042082143       12.5600246544
  H        -2.3838511088        8.7939949033       11.1924522615
  C         1.5314021533        5.2381858617       16.2286919426
  C         0.6450623588        4.1413204014       16.4262942642
  C         0.4800013250        3.6499880312       17.7503244263
  C         1.1513740321        4.3034607008       18.7763161454
  C         1.9945776203        5.3596692307       18.5405357955
  C         2.1679068579        5.8968229179       17.3064406686
  H         2.9099406027        6.6762647476       17.1389114693
  H         2.4563792266        5.8372377404       19.3847586889
  H         1.0974614402        3.9758597484       19.8164714547
  H        -0.0548385679        2.7550878212       17.9519586136
  H         0.3440061115        3.6387672352       15.4988984384
  C         4.0524398310        4.7761316105       14.6623421490
  C         5.0356523629        4.2149511865       13.9007655391
  C         4.8503113834        3.9898712053       12.5037655704
  C         3.7536769769        4.5501173122       11.8963552468
  H         3.7420126112        4.6193155499       10.8017451925
  H         5.5917632414        3.4840322433       11.8085843628
  H         5.8535808646        3.7156764960       14.4112240051
  H         4.2341834181        4.8079817872       15.7261050787
  C         1.4319093958        5.5128538183       10.5809421283
  C         0.5776418724        4.4662313304       10.4042811395
  C         0.4147534773        4.0525810891        9.0267475204
  C         1.1022976505        4.6954022724        8.0181088687
  C         1.9310708264        5.7725347132        8.2787370727
  C         2.1672448194        6.0999446908        9.5715521850
  H         2.7611677917        6.9688445184        9.8998780220
  H         2.3697930199        6.1713756757        7.3666546748
  H         0.9264654161        4.4588656599        6.9968935913
  H        -0.0596408237        3.1683977493        8.7089517888
  H         0.0352618013        3.9904238526       11.2535416589
