140

  C        13.9494661333        0.1473593704        1.2270273283
  C        15.0943102473        0.7793884210        1.8282724379
  C        16.1337043835        1.2801606582        1.0217418763
  C        17.3306252613        1.8129197599        1.6229751274
  C        18.2718729477        2.4565139838        0.8392134711
  C        15.1324583675        1.1875308131        3.3026886908
  C        14.2144355034        2.2516855844        3.7417862363
  C        14.4416416747        2.8038651476        5.0270026295
  C        15.4468925159        2.3191777313        5.8277571047
  C        16.3323369811        1.2707808475        5.4219692574
  C        16.1079641464        0.6899206595        4.1701033397
  H        17.3331200414        1.8302755001        2.7093953603
  H        19.1534806297        2.7691980582        1.3693475938
  H        13.4665228851        2.7311474839        3.0956926679
  H        13.6920212026        3.4864997687        5.3258021614
  H        15.6344287258        2.6723377510        6.8143912310
  H        17.1015322575        1.0116539285        6.1359011951
  H        16.7603034346       -0.1702490817        3.9327121807
  C        13.8562667449        0.1286594814       -0.2532264384
  C        12.7734187916       -0.5520117620       -0.8566502930
  C        11.8028502166       -1.1621007358       -0.0852429036
  C        11.8361248823       -1.1404932260        1.3399419287
  C        12.9496782696       -0.5510755283        2.0084961531
  C        15.9846591252        1.3867573333       -0.4065850904
  C        14.8244543425        0.9071752576       -1.0119748549
  C        14.7038893494        1.2776625408       -2.4934149951
  C        13.8453474972        2.2233200006       -3.0598900647
  C        14.0338849345        2.7399537393       -4.3572816598
  C        15.0555400514        2.2348277386       -5.1661718665
  C        15.8103760749        1.1117472273       -4.6921611084
  C        15.5901626111        0.6871840264       -3.3853483364
  H        16.1778766599       -0.1783478363       -3.1042888131
  H        16.7133691003        0.6811200057       -5.1813979563
  H        15.1691354511        2.6129824019       -6.1799725995
  H        13.4048172461        3.5503534761       -4.6819152290
  H        13.0651171347        2.7224930372       -2.5056478120
  C        16.9607330213        2.1521825194       -1.1619695312
  C        18.1413026636        2.5743713371       -0.5609946898
  H        18.9230623720        3.0022542477       -1.1723216326
  H        16.8809870404        2.2429820035       -2.2373328781
  C        13.1486735517       -1.0177115972        3.4354108410
  C        14.0932275403       -1.9507099811        3.7351495935
  C        14.1629540166       -2.5327811821        4.9926518216
  C        13.2259384479       -2.1982105052        6.0021943990
  C        12.2709128720       -1.2153418337        5.6610914351
  C        12.2671621158       -0.5630693715        4.4147328805
  H        11.4920097301        0.1164852383        4.1678788752
  H        11.5272910381       -0.9002104865        6.4723641016
  H        13.2573363222       -2.5964642749        6.9955148222
  H        14.9323468133       -3.1821490982        5.2693107977
  H        14.7484065968       -2.2189752476        2.9354850572
  C        10.9081690559       -1.8099966397        2.1392688637
  C         9.8801950603       -2.5124476548        1.4911772859
  C         9.8010591360       -2.4769365332        0.0232908132
  C        10.7513128633       -1.8469411670       -0.7530684853
  H        10.7447865154       -1.9069349782       -1.8081361879
  H         9.0465261777       -3.0777055549       -0.4563501529
  H         9.0311661727       -2.9896046435        2.0527404153
  H        10.9990321115       -1.9750954197        3.1980510112
  C        12.7572991947       -0.8601391600       -2.3590366125
  C        13.6948246241       -1.8742865914       -2.8152387047
  C        13.7419793375       -2.2781697477       -4.1407677529
  C        12.9893147456       -1.6189722458       -5.0933062697
  C        12.0769640825       -0.6358528510       -4.6986005366
  C        11.9472894743       -0.2627205313       -3.2913611335
  H        11.3526985832        0.5799597734       -2.9073223422
  H        11.5695071234       -0.0350927917       -5.5000788066
  H        13.1487521221       -1.7493540312       -6.1614087493
  H        14.4736815268       -3.0025246329       -4.5122778125
  H        14.3413539808       -2.2612201316       -2.0855812001
  C        10.4687891410        7.3825709147        1.2142520682
  C         9.4478021685        8.0135155261        1.9792096991
  C         8.3372801652        8.5609503709        1.3596563894
  C         7.2915771272        9.0452878255        2.1944614101
  C         6.1416239775        9.6705235261        1.7316358112
  C         9.6276594422        8.3385152400        3.4583196403
  C        10.4939411583        9.3345677308        3.8221934223
  C        10.4239282814        9.9425785716        5.0705825834
  C         9.4517739078        9.4246045745        6.0111642906
  C         8.6587201441        8.3524007924        5.6147322130
  C         8.8015049040        7.7189871622        4.3727885019
  H         7.2580366052        9.1554813842        3.2639264473
  H         5.3803798870        9.9407619503        2.4654769329
  H        11.0891879052        9.8229677454        3.0002853487
  H        11.1870981407       10.6891537118        5.2644404047
  H         9.4334459309        9.7870024881        6.9881126321
  H         7.9006430817        7.9024470696        6.2566032572
  H         8.1073156705        6.8928610262        4.1080705846
  C        10.3662245440        7.5339110109       -0.3291955789
  C        11.3192131816        6.8953414864       -1.1748353289
  C        12.4385876309        6.2145882272       -0.5246257825
  C        12.5838190000        6.2537155316        0.9266585105
  C        11.5489448344        6.6054792045        1.8056186000
  C         8.2017366127        8.6692054897       -0.0843090329
  C         9.1952823110        8.2214979905       -0.8979812638
  C         9.1920045713        8.4708445220       -2.4362395692
  C         9.9597494637        9.5822336966       -2.8495300496
  C         9.8873216315        9.8478407801       -4.2407065446
  C         9.0876687568        9.1062610972       -5.1551495878
  C         8.2399510879        8.0863776822       -4.6859074935
  C         8.3324372931        7.8057066641       -3.3133830053
  H         7.7682962171        6.9766325412       -2.8808606698
  H         7.7366899027        7.4233149737       -5.4376186402
  H         9.1934637085        9.2971360951       -6.2039389707
  H        10.5583673975       10.5696985363       -4.6287436725
  H        10.6362784503       10.1654225193       -2.1675943535
  C         6.9887228424        9.2669006451       -0.5444924322
  C         6.0325645167        9.7893797164        0.3018869621
  H         5.1425062712       10.3108004653       -0.0669256530
  H         6.7964766508        9.1806269272       -1.5845417922
  C        11.5487976802        6.1335324721        3.2492830302
  C        10.8148408160        4.9733037375        3.6937782622
  C        10.7975042587        4.6033263026        4.9940292673
  C        11.5314366339        5.2934974465        5.9258905117
  C        12.2698128002        6.3783084390        5.6324160721
  C        12.2549893720        6.8178895419        4.2863978323
  H        12.7885744635        7.7272046705        4.0230447393
  H        12.7583467518        7.0978482331        6.2953021838
  H        11.4638054716        4.9760579202        6.9379572921
  H        10.1049143451        3.7868392309        5.3057918039
  H        10.2401955386        4.4957990056        2.9228916123
  C        13.6581942910        5.5518421155        1.4973142232
  C        14.5188971624        4.8558250783        0.7201580041
  C        14.4331295874        4.8284340557       -0.7083166089
  C        13.3529188692        5.4538245043       -1.3255837854
  H        13.2033716921        5.4077647093       -2.3977317386
  H        15.1422756098        4.3467291844       -1.3672323049
  H        15.2890856199        4.2903223204        1.2377060614
  H        13.7695109183        5.4435216351        2.5799218856
  C        11.2598727894        6.6938371329       -2.5764736786
  C        10.5233392967        5.5604962385       -2.9771120982
  C        10.6114303670        5.0902313014       -4.3170334563
  C        11.3259167084        5.7900154998       -5.2671098680
  C        12.2280282639        6.8105829270       -4.7773873121
  C        12.1304597628        7.2798066454       -3.5092113182
  H        12.7757360226        8.0865845580       -3.1081303172
  H        12.8839279874        7.1598326106       -5.5470869945
  H        11.3457737035        5.5205427539       -6.3485005518
  H        10.0012365362        4.1994288515       -4.5419330634
  H         9.8437863122        5.0619321652       -2.2944571363
