140

  C         4.1838139969       -0.8427384836       13.8888868246
  C         5.2316361452       -0.1638910753       14.6177730553
  C         6.3668489199        0.2709788492       14.0108289935
  C         7.3716468712        0.9950821269       14.7453466305
  C         8.4794619077        1.4553501883       14.1709706276
  C         5.0126547296        0.1200863614       16.0556389247
  C         4.1243618241        1.0894365855       16.4339946621
  C         4.1644912151        1.5930517951       17.7600362392
  C         5.0358838185        1.1065818293       18.7287107201
  C         5.8168616347       -0.0103388425       18.3580818382
  C         5.8517229384       -0.4455237433       17.0531273675
  H         7.1808516751        1.0478778972       15.8414183252
  H         9.2011391855        1.9857341802       14.7733237817
  H         3.4676377036        1.5158004873       15.6489683582
  H         3.5926174731        2.4846304570       18.0339087433
  H         5.0788697099        1.5204852827       19.7953565896
  H         6.6377152926       -0.3300031806       19.0895354418
  H         6.6740686849       -1.1162912231       16.7423739919
  C         4.2541992522       -0.8268755534       12.4307949245
  C         3.1944128106       -1.5970873279       11.6963887345
  C         2.1167087975       -2.2471030165       12.3812501463
  C         2.0601650447       -2.2541137655       13.8409855815
  C         3.1378737301       -1.5915427152       14.5500934448
  C         6.4540914007        0.3147919921       12.5504855172
  C         5.3680165339       -0.1587748313       11.7821156620
  C         5.3004550839        0.2603374622       10.4063626798
  C         4.8393485769        1.5623941429       10.1017728971
  C         4.6124270812        2.0431008587        8.8247293850
  C         5.2189219984        1.3004446753        7.7687424470
  C         5.7324839897        0.0454705851        8.0352686716
  C         5.8157193693       -0.4729458816        9.3376045884
  H         6.3993415607       -1.3713866219        9.6061696231
  H         6.2539856384       -0.3932457599        7.1919505213
  H         5.3188234660        1.7431435147        6.8030566187
  H         4.1362819546        2.9681585100        8.7877194635
  H         4.5953056500        2.3133254330       10.8997778165
  C         7.5805353519        0.9741969519       11.9488996845
  C         8.6391736273        1.4537221561       12.7074363746
  H         9.4375302089        1.9120781112       12.1639771177
  H         7.4970656445        1.0131984909       10.8577115787
  C         3.2194885070       -2.0431853087       15.9817852907
  C         4.0596179210       -2.9515264643       16.6155575365
  C         3.8935431437       -3.3276320401       17.9197535543
  C         2.9870395093       -2.6743739123       18.8120086568
  C         2.2142551014       -1.6740273089       18.2153517459
  C         2.2679286417       -1.4630451031       16.8435481835
  H         1.6024651070       -0.6462384221       16.3402504703
  H         1.4504735911       -1.2162188439       18.8009194574
  H         2.9651194161       -2.8996918339       19.8791249424
  H         4.4689701795       -4.1638274279       18.2776483866
  H         4.8730387210       -3.4001344729       16.0245452877
  C         1.0309854738       -2.9690290557       14.5156598308
  C        -0.0669984046       -3.5012190774       13.8380411068
  C        -0.1136478758       -3.2905200926       12.4068179560
  C         1.0001279201       -2.8136339173       11.7007376308
  H         0.9176945274       -2.8387479428       10.6399057933
  H        -0.9875752711       -3.5867326789       11.8073092368
  H        -0.8534378063       -4.0203371568       14.4168572626
  H         1.1036677907       -2.9922412217       15.5876442760
  C         3.2844756807       -1.8907356595       10.2653644642
  C         4.0160618568       -3.0879892177        9.8440366867
  C         3.9194300736       -3.5011824403        8.5181537215
  C         3.0625650187       -2.9408260026        7.5967912257
  C         2.5442703319       -1.7024093979        7.9585175225
  C         2.6661477901       -1.1590206615        9.2214989763
  H         2.2322957798       -0.2037448921        9.4500429304
  H         2.0043187042       -1.1464539870        7.2252419710
  H         2.9106453940       -3.4208317046        6.6367867398
  H         4.4883020285       -4.4103130299        8.1871623030
  H         4.5743152855       -3.6060643357       10.6118742344
  C         0.8077551457        6.3195755457       14.1367554838
  C        -0.1688860219        7.1113632576       14.8270096688
  C        -1.1844412599        7.7261228203       14.0502571689
  C        -2.3077871769        8.3696333354       14.6762496276
  C        -3.2257791866        9.0447316267       13.9522184249
  C        -0.1890545827        7.3896838147       16.3399515141
  C         0.5472656710        8.4219105361       16.7578312346
  C         0.5694558881        8.7797615523       18.1040849192
  C        -0.0763076122        8.0422329033       19.0279461260
  C        -0.9109362143        7.0310616698       18.5496956182
  C        -1.0634973959        6.6859330129       17.2298264284
  H        -2.2350323943        8.4101824079       15.7750527328
  H        -4.0616107217        9.6329019446       14.4045942592
  H         1.1758750557        9.0238694937       16.1316846601
  H         1.1914871076        9.6188333436       18.4377680714
  H        -0.1107750417        8.4377286395       20.0727563557
  H        -1.5410688012        6.4766300156       19.2749278887
  H        -1.6053100479        5.8561906018       16.8393182779
  C         0.8256516899        6.2947406507       12.6635608450
  C         1.8470615420        5.5300552256       12.0260633734
  C         2.9268727527        5.0088924557       12.7318887336
  C         2.8591891243        4.9682527933       14.1737568867
  C         1.7827059039        5.6022050909       14.8763821144
  C        -1.1261694604        7.7023763745       12.6619532036
  C        -0.1407333795        7.0483670824       11.9624574758
  C        -0.0477430086        7.2647361199       10.4441626560
  C         0.6128657169        8.3810335230        9.9768219569
  C         0.4346958212        8.7995110662        8.6713190586
  C        -0.4281201179        8.1430082568        7.8236114440
  C        -1.1371056249        7.0430528164        8.3376513763
  C        -0.9368453047        6.5668493059        9.6169107009
  H        -1.3563348403        5.6488013400        9.9992570808
  H        -1.7774466655        6.4494193014        7.6904622174
  H        -0.6699160477        8.5171914260        6.8650082457
  H         0.8824636080        9.7031645613        8.3076822851
  H         1.3201136336        8.8428520445       10.7091441280
  C        -2.2206889950        8.2882991038       11.9078208226
  C        -3.2560150800        8.8947112919       12.5295014970
  H        -4.0568810115        9.3656881740       11.9561750116
  H        -2.2285421639        8.2641217188       10.8204731664
  C         1.6198567120        5.2959513971       16.2965047058
  C         0.6947067482        4.3041180198       16.6753464118
  C         0.6136750728        3.8934731377       18.0178857388
  C         1.4979646105        4.4868504359       18.9535106797
  C         2.4187762139        5.3742775911       18.5873075469
  C         2.5132900235        5.7618558587       17.2592038670
  H         3.2639323267        6.4725777515       16.9004573417
  H         3.0963184152        5.7245770848       19.3942872556
  H         1.4133690211        4.2238608487       20.0172945002
  H        -0.0967516780        3.1899962539       18.3968693258
  H        -0.0072165940        3.9094032317       15.9884946182
  C         3.9596852249        4.2707304432       14.8417989610
  C         5.0319497811        3.7602504438       14.2103318611
  C         5.1020681937        3.8962122433       12.8025713728
  C         4.0659248533        4.4426949280       12.0637903553
  H         4.1795125368        4.4155738290       10.9570711716
  H         6.0327810065        3.5563400750       12.2973284968
  H         5.8040439144        3.2474024151       14.7443403571
  H         3.8435405366        4.1659097901       15.9429954832
  C         1.8923936091        5.1377850766       10.5442585058
  C         1.2152883923        3.9420942871       10.2054485183
  C         1.2524418608        3.5629468680        8.8610699016
  C         2.0269444506        4.2650042424        7.9078048552
  C         2.7309556804        5.3893049687        8.3022404017
  C         2.6540762053        5.8445510676        9.5998951313
  H         3.1267922689        6.7799374748        9.8706761454
  H         3.3292114818        5.8928745541        7.6006625196
  H         2.0599560977        3.9561882711        6.8287075079
  H         0.6863072833        2.6753240560        8.4974961269
  H         0.6684447954        3.3395082452       10.8658102100
