140

  C        15.2222051084       -1.1444812869        0.3077129894
  C        16.3411641519       -0.4947315126        0.9407399143
  C        17.3665905979        0.1263473402        0.2830343506
  C        18.4913261050        0.8195262802        0.9057804245
  C        19.3254787876        1.6816866169        0.1385413746
  C        16.3593490662       -0.2290877450        2.4261560783
  C        15.6918273447        0.9072923401        2.8798461580
  C        15.6950957340        1.2484310132        4.2197069696
  C        16.3184771782        0.3983771933        5.2218738399
  C        17.0615338489       -0.6861971697        4.7036371681
  C        17.0599095931       -0.9523810801        3.3511447595
  H        18.7043857327        0.8232881658        1.9858531528
  H        20.1626254653        2.1698157751        0.5641067555
  H        15.1684244566        1.5042965277        2.1277094386
  H        14.9546728326        2.0236009492        4.4844900579
  H        16.3135325502        0.7357897390        6.2644500149
  H        17.6392132427       -1.3547762593        5.3527268854
  H        17.6032082986       -1.7911597827        3.0309253895
  C        15.1221671801       -1.0508649145       -1.1012031366
  C        14.0978305831       -1.8294984621       -1.7916671916
  C        13.1078993950       -2.5858180619       -1.1260487272
  C        13.0781431865       -2.4780281898        0.2907598843
  C        14.2151825681       -1.8789392823        1.0048430367
  C        17.1607982293        0.2750176142       -1.1113892235
  C        16.0769379825       -0.2762108680       -1.8102691563
  C        16.0069677395        0.0773446716       -3.2739044786
  C        15.3186354046        1.2702327682       -3.5776764463
  C        15.4507105123        1.8938032037       -4.8354294937
  C        16.2840143509        1.4374967696       -5.8311194349
  C        16.9569974792        0.2257169151       -5.5782296867
  C        16.8430671983       -0.4266600194       -4.3046510016
  H        17.5351581958       -1.2466790174       -4.1531008257
  H        17.6751047162       -0.2212862673       -6.2457740970
  H        16.3976753111        2.1003143634       -6.6696147289
  H        15.0219298526        2.8771921820       -4.9112803928
  H        14.7863542258        1.7899904229       -2.8269199769
  C        18.0684659557        1.1090314430       -1.7909865089
  C        19.0384129853        1.8971633584       -1.1998550604
  H        19.5927990121        2.5498953533       -1.7874326430
  H        18.0093629966        1.1365184209       -2.9006819067
  C        14.3638999304       -2.2628674617        2.4599474187
  C        15.1642247669       -3.2459947755        2.8956692602
  C        15.3406622214       -3.6581840315        4.2449370788
  C        14.5132428140       -3.0921021754        5.1335808768
  C        13.7354463138       -2.0133537666        4.8370311936
  C        13.7030018224       -1.5320624004        3.4403634487
  H        13.1751249251       -0.5773817135        3.2741553919
  H        13.0917453623       -1.5286350197        5.5265809386
  H        14.5696180153       -3.3831273264        6.1876238343
  H        16.0705817335       -4.3824482291        4.5116885640
  H        15.8039256657       -3.7431601827        2.2680620521
  C        11.9926854493       -3.1583378702        0.9446316101
  C        11.0040380089       -3.7405933008        0.2307771492
  C        11.0063734735       -3.8001182514       -1.2117616767
  C        12.0736291798       -3.2596987005       -1.8290782566
  H        12.1825657478       -3.2709270184       -2.9380559213
  H        10.2496138325       -4.2893701232       -1.7699175288
  H        10.1660089449       -4.2307472790        0.8021678574
  H        11.9780289074       -3.1571316472        2.0365658801
  C        14.1483973063       -2.0350607731       -3.3055302383
  C        15.0388454332       -3.0187576840       -3.7757014840
  C        15.1599739678       -3.3747477817       -5.1004331203
  C        14.2926906770       -2.6886192946       -6.0126485326
  C        13.5205340371       -1.6148001599       -5.5495259001
  C        13.4742975428       -1.2883557351       -4.2377335597
  H        12.8088238510       -0.4539151781       -3.9840000368
  H        13.0293443687       -1.0384082861       -6.2757479082
  H        14.1940781897       -3.0881704757       -7.0673890000
  H        15.8959664194       -4.1346899808       -5.3850602554
  H        15.4984941801       -3.7127251243       -3.0527978085
  C        11.4070447098        5.7268918930        0.5076030542
  C        10.3828950420        6.4679049901        1.1671371135
  C         9.4580766169        7.2616065764        0.3737215335
  C         8.3904055138        8.1212293310        0.9271176867
  C         7.5674149701        8.9312151160        0.2413369868
  C        10.5241624846        6.8389613013        2.5913873588
  C        11.3473528126        7.9217321327        2.8874273257
  C        11.3743565062        8.4506363680        4.2196103495
  C        10.6265568265        7.8145958151        5.2147504242
  C         9.8263128532        6.7194517571        4.8665976779
  C         9.7591299913        6.2641260222        3.5897631193
  H         8.5430632204        8.2175131575        2.0076711508
  H         6.8095843765        9.5206184634        0.7831442141
  H        11.9565810078        8.4641961972        2.1482384258
  H        12.0926659038        9.2878084151        4.6041082884
  H        10.6718171261        8.2054376983        6.3234081093
  H         9.1854054665        6.3121044265        5.5325901571
  H         9.1760417741        5.3993276747        3.2527698490
  C        11.4944551055        5.7987443580       -0.9680802357
  C        12.6433895489        5.2499659690       -1.6140979783
  C        13.7585459439        4.7518129739       -0.9844463696
  C        13.6423634170        4.6615464703        0.5069668973
  C        12.4568844548        5.0478320730        1.2057771074
  C         9.5247519106        7.2375569078       -1.1261293272
  C        10.5508977895        6.5155264824       -1.7689661216
  C        10.8199423668        7.0007368664       -3.1830104348
  C        11.6165356911        8.1796915354       -3.3438221345
  C        11.8507265217        8.7555796164       -4.5577949883
  C        11.2408193492        8.2549321017       -5.6886912545
  C        10.3759517016        7.1584183861       -5.5652093187
  C        10.1721297653        6.5205551592       -4.3554778351
  H         9.5122901892        5.6162485353       -4.2105079687
  H         9.8643723048        6.7853310084       -6.4402731986
  H        11.5806214017        8.8001193007       -6.5666392889
  H        12.5236191250        9.6471469799       -4.6092003024
  H        12.1502552611        8.5476339327       -2.4078057989
  C         8.5750872651        8.0853244405       -1.8126635301
  C         7.6133906328        8.8660385992       -1.1807163802
  H         7.0912643123        9.5819588549       -1.8021136805
  H         8.7744494615        8.1531684289       -2.8886817162
  C        12.3712368452        4.7251968971        2.7088291179
  C        11.7353374505        3.4942744734        3.0735638824
  C        11.7216025140        3.1727448953        4.4655852456
  C        12.4668905497        3.9261198541        5.3550723979
  C        13.2283480958        5.0164710353        4.9589990503
  C        13.2143978044        5.4247761806        3.6346568020
  H        13.8017193015        6.2214705306        3.2904987227
  H        13.7421290137        5.6306580439        5.6801407890
  H        12.4813308084        3.7037479643        6.3729583330
  H        11.1473881657        2.2227396181        4.6648808001
  H        11.1721272089        2.8609670791        2.3847357543
  C        14.7619690352        4.2318419904        1.2683059589
  C        15.9290645060        3.9800742095        0.6479056232
  C        16.0235281003        3.8861567309       -0.7940907929
  C        14.9575739267        4.2645114553       -1.5526618212
  H        15.1264631347        4.2001462747       -2.6457594243
  H        16.9677375632        3.6222563471       -1.2159388622
  H        16.8011980584        3.7499384449        1.1671720553
  H        14.7249041586        4.1319772120        2.3970384738
  C        12.6553490725        5.0928447999       -3.1257860068
  C        12.0238440680        3.9612449958       -3.7729620449
  C        12.2750127488        3.7039132236       -5.1150688328
  C        13.0315676473        4.5804137788       -5.8476029873
  C        13.5981411087        5.6879557255       -5.2776123076
  C        13.4619777775        5.9520312687       -3.9049081832
  H        13.9502467637        6.7622854474       -3.3399126127
  H        14.1173587829        6.3323106969       -5.9245742758
  H        13.2177574063        4.2826483102       -6.9126326374
  H        11.7860807243        2.9043161919       -5.5480711360
  H        11.4027043272        3.3261068998       -3.1855369195
