140

  C         4.3717088015       -0.0417047203       15.7561248940
  C         5.3987443601        0.6499388445       16.4619258248
  C         6.4084668754        1.3911910479       15.7512918734
  C         7.5527727925        1.8811144228       16.3771546602
  C         8.5429494318        2.4965603458       15.6955217387
  C         5.2364101455        1.0312949509       17.8283404233
  C         4.2418578531        1.8956750981       18.3098844644
  C         4.2322078478        2.2662294630       19.6729982976
  C         5.1811960324        1.8114217418       20.5821939580
  C         6.0884568451        0.7883477346       20.1388671570
  C         6.1078481004        0.4675454315       18.7825757116
  H         7.6755469495        1.7915874286       17.4900482986
  H         9.3585446463        2.9347989314       16.3141055998
  H         3.4271097829        2.3366171375       17.6825785335
  H         3.4113189964        2.8421497345       20.1493635454
  H         5.0849127559        1.9747552097       21.6463415047
  H         6.7921132314        0.3468072355       20.8232085791
  H         6.9118479719       -0.1907763519       18.4295287866
  C         4.3490252760       -0.0400331590       14.2449390589
  C         3.3571368877       -0.8022895846       13.5188269072
  C         2.3012210422       -1.3614664052       14.2313094233
  C         2.3093627217       -1.4149455202       15.6813413729
  C         3.3983784148       -0.8387565398       16.4015304617
  C         6.4350832902        1.3113308351       14.2968067534
  C         5.3657093652        0.6743370945       13.6280872929
  C         5.4889469100        0.7774839500       12.1204302171
  C         4.9742336418        1.9539240377       11.5095050844
  C         5.1360528411        2.2408361812       10.1383496621
  C         5.7254983262        1.3090646076        9.2916917596
  C         6.2819574297        0.1643179954        9.9184917204
  C         6.1710816380       -0.1044682837       11.2743662789
  H         6.5671046334       -1.0480985741       11.6214216780
  H         6.8521506438       -0.5519731518        9.3261378972
  H         5.7228765134        1.5162668523        8.2494458628
  H         4.7734541763        3.1142403164        9.6570580292
  H         4.5310837146        2.7483190064       12.0972384521
  C         7.5368083291        1.8680938756       13.6223267978
  C         8.5581548145        2.5043620359       14.3176208452
  H         9.4035556403        2.9320474491       13.7807327488
  H         7.5764311672        1.8606389235       12.5250531608
  C         3.4772016448       -1.3033424889       17.8376089958
  C         4.3855708615       -2.2944544190       18.3604360590
  C         4.2646222742       -2.6588271276       19.6418836182
  C         3.3737720687       -2.0471887488       20.5113458305
  C         2.5660929522       -1.0586082271       20.0960580950
  C         2.5756528523       -0.7441587674       18.6987643830
  H         1.9748244878        0.0796313340       18.2758449250
  H         1.7270878879       -0.7582677264       20.7519134304
  H         3.1696527930       -2.3966597773       21.5090676178
  H         4.8007448468       -3.5721223079       20.0374817754
  H         5.1452432325       -2.7011696338       17.6902122193
  C         1.2672273601       -2.0392183199       16.4398157999
  C         0.2125842774       -2.5367419644       15.7045043180
  C         0.1085436546       -2.4751733223       14.2920080953
  C         1.1522389484       -1.9920930465       13.5441133643
  H         1.0388189098       -1.8543794446       12.4289267826
  H        -0.7572152231       -2.9820494319       13.8145084908
  H        -0.5264995521       -3.1586332701       16.1813609921
  H         1.2050762655       -2.1900951358       17.5047898522
  C         3.3609579933       -1.1938897175       12.0764743851
  C         3.9830457179       -2.3713637075       11.7200648588
  C         3.9773572146       -2.8258687623       10.3759496734
  C         3.2430571647       -2.0744695743        9.3450820570
  C         2.5964859252       -0.9122057824        9.7697481072
  C         2.7138948866       -0.4377732711       11.0897479580
  H         2.3021110602        0.5279443410       11.3837425987
  H         1.9938206912       -0.3184657497        9.0900419858
  H         3.1391080878       -2.3887416683        8.3452750751
  H         4.4511450439       -3.7845828855       10.0322277298
  H         4.4127872621       -3.0226256785       12.4598352698
  C         0.7585650586        7.1775530605       15.5265935661
  C        -0.2655146794        7.9594808409       16.1644476757
  C        -1.3343036773        8.5075328852       15.4633643725
  C        -2.3796103812        9.3401526733       16.1041330147
  C        -3.3424687515        9.9364720558       15.3591226929
  C        -0.1421715833        8.4520536448       17.6052040432
  C         0.7447464393        9.4632788090       17.8512903158
  C         0.8110678686        9.9636636269       19.1334089516
  C        -0.0581434439        9.4667924391       20.1606632784
  C        -1.0288111756        8.5191456456       19.8319924582
  C        -1.0085446926        8.0239992741       18.5598255247
  H        -2.2763377085        9.4079344023       17.1930401213
  H        -4.1338646660       10.5104704457       15.8436360976
  H         1.4658685329        9.7814077572       17.1162411886
  H         1.5010539356       10.7697954889       19.3100246887
  H         0.1193963411        9.6779015506       21.2082606586
  H        -1.7579278708        8.2634005222       20.6247118823
  H        -1.5821665014        7.1335862388       18.3173979183
  C         0.8495923532        7.1435197706       14.0908449730
  C         1.9106854892        6.4249609826       13.5003602249
  C         2.8038166522        5.7001688270       14.3240215231
  C         2.6050210541        5.5917619946       15.7040603729
  C         1.5830287841        6.3863040660       16.3347570077
  C        -1.3855053442        8.3775799452       14.0103644462
  C        -0.2300812324        7.8146158271       13.3731131396
  C        -0.3185009263        8.0707874806       11.8887933787
  C         0.3280285952        9.2447250357       11.4064075200
  C         0.3435891010        9.5708324805       10.0759296469
  C        -0.2446612544        8.7459909156        9.1577686845
  C        -0.9883369263        7.6003182041        9.6237858469
  C        -0.9871526908        7.2221742491       10.9611120412
  H        -1.5662387982        6.3376017096       11.2611573135
  H        -1.3898949551        7.0379575746        8.7982334536
  H        -0.4416659788        9.0844054255        8.1290371649
  H         0.8209468749       10.5379850989        9.8862343901
  H         0.7841888592        9.9008219739       12.1600584516
  C        -2.5203250491        8.9542685858       13.3162047251
  C        -3.5036995747        9.6736941015       13.9747970695
  H        -4.2441692911       10.1029342323       13.2767270259
  H        -2.5597399999        8.8105804544       12.1851673211
  C         1.4231537636        6.1857131847       17.7979410882
  C         0.6359006024        5.0983968500       18.1676182384
  C         0.7070943715        4.5733044350       19.4836809418
  C         1.6498214087        5.0674856050       20.3774070892
  C         2.4645433034        6.1683307744       20.0157446572
  C         2.3530749453        6.7099793711       18.7358155688
  H         3.0705757799        7.4899654012       18.4967640641
  H         3.2923752129        6.4654193807       20.7099959929
  H         1.8314306772        4.5490429139       21.3445179246
  H         0.2309438768        3.7219997697       19.9334865127
  H        -0.0407178188        4.6208526571       17.4621060682
  C         3.5597907821        4.8997284257       16.5223270101
  C         4.6592304080        4.2734531982       15.9421776980
  C         4.8196296273        4.3106969790       14.5338647631
  C         3.9345396891        5.0865474259       13.7782479290
  H         4.2528299684        5.4108515703       12.7608812536
  H         5.7801006121        3.9320104934       14.1410702267
  H         5.3943197270        3.8841677638       16.6044041585
  H         3.4815674859        4.9386789907       17.6114803124
  C         2.0815989941        6.1883769742       12.0599177160
  C         1.7353807869        4.9234898252       11.4739183755
  C         1.9259263734        4.7072401827       10.1057307854
  C         2.4691577401        5.7331522553        9.2907046042
  C         2.9139195164        6.9261103555        9.9129880253
  C         2.7525327076        7.0781324141       11.2890383834
  H         3.0876338387        7.9357029956       11.8139705794
  H         3.3927680027        7.7141437402        9.2514078793
  H         2.4508031552        5.7234244904        8.2116923149
  H         1.6319623716        3.7373278611        9.7713582709
  H         1.2297475857        4.1405773622       12.0740679367
