140

  C         4.2895396082       -1.1996544464       13.9595178786
  C         5.3278906414       -0.5238223256       14.6459339256
  C         6.4190270112       -0.0367752747       13.8695198086
  C         7.5020667531        0.6915247308       14.4617791127
  C         8.5339503969        1.2721291539       13.7377389904
  C         5.1565393977       -0.1163106494       16.0718099598
  C         4.3813130363        0.9183898748       16.5231188566
  C         4.4710531094        1.3417870063       17.8313210641
  C         5.5438335899        0.8995972214       18.6560725090
  C         6.3107468937       -0.1918894301       18.2781257095
  C         6.0226408109       -0.7716265091       17.0057689757
  H         7.4776428151        0.8649509432       15.5306920753
  H         9.3794611020        1.7989947718       14.2198181342
  H         3.7887915673        1.5419051960       15.8441770021
  H         3.9277135149        2.1908701911       18.1977520889
  H         5.6829486961        1.3505493003       19.6185409900
  H         7.0972981473       -0.5020113781       18.9262243121
  H         6.6633508895       -1.5566858055       16.5789163222
  C         4.2067807043       -1.2630815541       12.4897198605
  C         3.1147020482       -1.9299294162       11.7968716118
  C         2.0295218395       -2.4019005356       12.6065519143
  C         2.0381637627       -2.1387776659       14.0409768458
  C         3.2065865614       -1.7339508205       14.6890472660
  C         6.4081533271       -0.1565349097       12.4293889976
  C         5.2258612740       -0.6553380855       11.7849487788
  C         5.0735980846       -0.3042083705       10.3760988727
  C         4.0891504692        0.6846168191       10.0089614373
  C         3.9067814089        1.0769080729        8.6259079557
  C         4.8394149144        0.5673467867        7.5926563142
  C         5.8790807342       -0.2549067524        8.0750306292
  C         5.9449332340       -0.7560014842        9.3696071197
  H         6.7163509988       -1.5071254185        9.6266578089
  H         6.6495898671       -0.6423438070        7.4102878293
  H         4.6679585839        0.7147107455        6.5106229037
  H         3.1360798733        1.7885748134        8.4973199733
  H         3.2993602832        0.9075409083       10.7595657904
  C         7.4445724752        0.5721364423       11.7470503598
  C         8.4997376166        1.1890489428       12.3640598730
  H         9.2964214008        1.5742576193       11.7317043749
  H         7.3805463317        0.6759336571       10.6374512030
  C         3.3211893383       -2.2014327742       16.0944480531
  C         4.0119174955       -3.4018971913       16.2252266696
  C         4.1827974777       -3.9489715929       17.4986839042
  C         3.4604825751       -3.3971769416       18.5843563635
  C         2.5742075278       -2.3250133284       18.4010121331
  C         2.6547186936       -1.6354602706       17.1518257435
  H         2.1747371427       -0.7176579666       16.9773961600
  H         1.9706881426       -1.9216415690       19.1975321217
  H         3.5422012594       -3.8945118449       19.6054879962
  H         4.8260427083       -4.8196979466       17.6550293027
  H         4.5352239265       -3.9348039087       15.3776016856
  C         0.8670375865       -2.6643267500       14.7574382708
  C        -0.0715676060       -3.4873674164       14.1509478882
  C        -0.0862903839       -3.7317835342       12.7735661904
  C         0.9420193274       -3.1591171156       12.0223607198
  H         0.8961185374       -3.2956263237       10.9372618686
  H        -0.9603382309       -4.2351917400       12.3426318431
  H        -0.7909696086       -3.9598808231       14.7848768860
  H         0.6741166164       -2.4225489577       15.7841301225
  C         3.1475232348       -2.3288332514       10.3865380449
  C         4.2075494532       -3.1450145103        9.9269507310
  C         4.3118625206       -3.5782318637        8.5234885397
  C         3.3915354989       -3.0692192900        7.6464599737
  C         2.4175350520       -2.1102871129        8.0453411531
  C         2.2250471061       -1.7937548707        9.3928705797
  H         1.5621358156       -0.9562829370        9.5626573494
  H         1.8524740905       -1.6157671382        7.2695107005
  H         3.5321724300       -3.4284406571        6.6504554107
  H         5.0496057233       -4.3228993403        8.2202456210
  H         4.8385067276       -3.6386690794       10.6518153452
  C         0.6774763152        6.2430446103       13.8563384242
  C        -0.4269734178        6.9527460734       14.5426453538
  C        -1.5080724113        7.4418461145       13.8194439572
  C        -2.6781109801        7.9814870222       14.4483944681
  C        -3.6345062958        8.5665880615       13.7364126617
  C        -0.3913432144        7.2513663001       16.0091443084
  C         0.3128116120        8.3693879187       16.4165364873
  C         0.3181220231        8.7190282469       17.7960640195
  C        -0.4810100755        7.9898404759       18.6975092466
  C        -1.3031901430        6.9637744658       18.2116705803
  C        -1.1962531848        6.5628316000       16.8910818845
  H        -2.6819694608        7.8683959718       15.4922974964
  H        -4.4383775361        9.0360150863       14.3162691391
  H         0.8244092830        8.8766697502       15.6052296610
  H         0.8396000431        9.6443928634       18.2182953748
  H        -0.6734287875        8.2942526907       19.7159194688
  H        -1.9592527029        6.5078060769       18.9083871840
  H        -1.8690026345        5.7283748226       16.6038578868
  C         0.6823819850        6.2358863001       12.3937348729
  C         1.7494046097        5.5401027438       11.7263705503
  C         2.8150569253        4.9193031006       12.4324786076
  C         2.8003963417        5.0198805969       13.8765564987
  C         1.6877584173        5.6093633438       14.5707030313
  C        -1.5372559669        7.3848482918       12.3789781784
  C        -0.4261624359        6.8570947534       11.6341564065
  C        -0.3075190594        7.2563323958       10.1893064458
  C         0.4677340811        8.3872480281        9.8229907555
  C         0.5777601670        8.7811585977        8.4612480816
  C        -0.1602715728        8.1459547325        7.4618275205
  C        -0.9360229083        7.0339547878        7.8361860347
  C        -0.9920238321        6.6273520265        9.1614020700
  H        -1.5868483583        5.7806576067        9.5033100184
  H        -1.4390382759        6.4525974627        7.0965600416
  H        -0.1395576083        8.3906874066        6.3731547069
  H         1.0632286358        9.7541602168        8.2794090158
  H         1.0211894756        8.9602482308       10.5864570385
  C        -2.6629888472        8.0096071323       11.7231576466
  C        -3.7302329442        8.5896506413       12.3139941244
  H        -4.4142118459        9.1370495724       11.7957712464
  H        -2.5595875115        8.0687910102       10.6642077686
  C         1.5620725995        5.3729204650       16.0831475555
  C         0.7443928552        4.2573167342       16.5532394786
  C         0.7698426003        3.7971523428       17.8787490862
  C         1.7874118728        4.3256106165       18.7840935159
  C         2.6111420704        5.3510982109       18.3436433866
  C         2.3992888696        5.9267370338       17.0516226991
  H         3.1104891715        6.7098769229       16.7112896391
  H         3.3918852823        5.7368039456       19.0301255605
  H         1.8148135149        3.7500635396       19.6637420717
  H         0.2265983796        2.9221628308       18.2098144024
  H         0.1048388679        3.8208812161       15.8482505896
  C         3.7778373866        4.2135095844       14.6224943210
  C         4.9022021662        3.5704753694       13.9914614560
  C         4.8846498870        3.5833556969       12.5495184005
  C         3.8603799109        4.1522102940       11.8363117347
  H         3.9605589608        4.1405678897       10.7363926008
  H         5.6949907589        3.0727391909       11.9825434389
  H         5.5972414688        2.9860796567       14.5912155840
  H         3.6491348705        4.2172128757       15.7319604506
  C         1.7502616465        5.2261626880       10.2920132661
  C         0.8311285640        4.2794411134        9.7258603601
  C         1.0283339492        3.8012564867        8.4631110692
  C         2.1337313942        4.2092291382        7.6787723960
  C         3.0219032398        5.1293892506        8.1999999070
  C         2.8239954554        5.6509378130        9.4892562854
  H         3.5921509312        6.3527446799        9.9458912359
  H         3.8697135738        5.3897656392        7.5845214720
  H         2.3338365968        3.7650037980        6.7309352101
  H         0.4620854299        3.0026586703        8.0099625490
  H         0.1217686443        3.8534877202       10.3899648878
