140

  C         4.7180739991       -1.4108692596       13.7004801537
  C         5.7054659849       -0.6398820763       14.3558255056
  C         6.6507007232        0.0287519069       13.6211469481
  C         7.7348113504        0.6837508365       14.3486544444
  C         8.7052260836        1.3440538036       13.6120511138
  C         5.6541102315       -0.2669410908       15.8867987267
  C         4.8326323831        0.7943595412       16.3895936412
  C         4.7641771529        1.0743562909       17.8010085005
  C         5.6607598599        0.4320406374       18.6261832487
  C         6.4898050303       -0.5819362565       18.1567617892
  C         6.5020983177       -0.9185198719       16.8127048686
  H         7.8986342542        0.5932103096       15.4395178706
  H         9.5325236568        1.9187804181       14.0740551434
  H         4.0964226237        1.2231785572       15.6358958998
  H         3.9571958307        1.8046700989       18.0860038141
  H         5.6258372839        0.5381286348       19.6819137300
  H         7.1561281766       -1.1271978370       18.8044576974
  H         7.1526313675       -1.7662043939       16.4651700941
  C         4.6064078837       -1.3779272028       12.2936887925
  C         3.5750821904       -2.1041648497       11.5958262895
  C         2.5172580839       -2.7217193214       12.3251178573
  C         2.5375190441       -2.6036509307       13.7526648753
  C         3.7078688089       -2.0966173757       14.4525062696
  C         6.5477651059        0.0954437142       12.1949284571
  C         5.5424913996       -0.5664071035       11.5209882581
  C         5.3015403637       -0.1769925053       10.0935308398
  C         4.4024606025        0.8515854065        9.8176723824
  C         4.3478761871        1.3876420493        8.5481167605
  C         5.0496046902        0.8211335774        7.5032997194
  C         5.8627740429       -0.2883728227        7.6898258542
  C         6.0547675608       -0.7491600890        9.0270041341
  H         6.7293826987       -1.6111752616        9.2003649631
  H         6.3764010053       -0.8337110122        6.9369595172
  H         4.9960226048        1.3559113631        6.4888671877
  H         3.7059652232        2.2266180381        8.3869743333
  H         3.6933756509        1.2670332860       10.5202381866
  C         7.4981349804        0.9349848202       11.5147006202
  C         8.4745224556        1.5014771833       12.2383879680
  H         9.2904144998        1.9955504795       11.7277490126
  H         7.4453434708        1.1901051087       10.4537665829
  C         3.8181201446       -2.5428421645       15.8702630029
  C         4.5888383140       -3.6963234718       16.0978272264
  C         4.6851531402       -4.2042315974       17.4098055874
  C         4.0852928926       -3.5184162445       18.4798029956
  C         3.2878005212       -2.4063770611       18.2262357913
  C         3.2023186765       -1.8229421739       16.9507313227
  H         2.5845513162       -0.9858464717       16.7316060647
  H         2.6944040942       -1.9366872772       18.9938785349
  H         4.1580212853       -3.9586738518       19.4678467002
  H         5.4518509451       -4.9797840297       17.6445382086
  H         5.2100774974       -4.2786337908       15.3544149640
  C         1.3957613295       -3.0524440199       14.4728263221
  C         0.3132016158       -3.5984802343       13.8434999865
  C         0.2533828053       -3.6357555155       12.4527484092
  C         1.3486259713       -3.2922191770       11.6877184728
  H         1.2247636837       -3.2764094692       10.6093740151
  H        -0.6253749645       -4.0836525666       11.9817812331
  H        -0.5155107242       -3.9089997112       14.4617929965
  H         1.3904925403       -3.0024884592       15.5372335637
  C         3.5446893339       -2.2849239916       10.1194962722
  C         4.3456640511       -3.2780937978        9.5456887748
  C         4.1771316027       -3.5322434465        8.1976092725
  C         3.2092287987       -2.8730434073        7.4563739433
  C         2.4513130076       -1.8585012742        8.0220755293
  C         2.5385596076       -1.5999100262        9.3774973691
  H         1.8775300847       -0.9118046865        9.8901827787
  H         1.7177204435       -1.3119131568        7.3998164970
  H         3.2071984176       -2.9475137733        6.3731244424
  H         4.8732591048       -4.2052085462        7.7037927960
  H         4.9494954218       -3.7647493241       10.2701351675
  C         1.1401845515        6.1620032374       13.8437626476
  C         0.0541963161        6.7741182631       14.5805800368
  C        -1.1177066966        7.3210852278       13.9359437095
  C        -2.1403440377        7.8491328689       14.6805746276
  C        -3.2021951520        8.4838532978       14.0927389587
  C         0.3142310755        6.9833371990       16.0403422096
  C         1.0931379504        8.1171978328       16.3768947140
  C         1.2223779497        8.5686020691       17.6867483047
  C         0.6495804276        7.8564492346       18.6920366237
  C        -0.1391714038        6.7194321648       18.3980331831
  C        -0.3550107321        6.3238662289       17.0677079098
  H        -2.1297916034        7.7994472353       15.7737828348
  H        -4.0478580805        8.7568857527       14.7277322649
  H         1.4978382911        8.6970597551       15.5657106389
  H         1.9247468082        9.3950004844       17.8689444618
  H         0.8725250556        8.1080635918       19.6777608917
  H        -0.4352544323        6.0996702263       19.3135822565
  H        -1.1231472550        5.6463154443       16.6259072636
  C         1.0982107406        6.1609176200       12.2972130835
  C         2.1073473232        5.4574371538       11.5875396635
  C         3.2411494981        4.8411957539       12.2438514454
  C         3.1970341450        4.7408408651       13.7617191649
  C         2.1736027270        5.3789621219       14.4465529636
  C        -1.1222787706        7.3741697720       12.4689518864
  C         0.0081150782        6.9012160252       11.6755071477
  C         0.0659427964        7.4570688023       10.2230434436
  C         1.0045025733        8.4338716955        9.8385435891
  C         0.9923075601        8.9611744225        8.5602443045
  C        -0.0008927284        8.5360099987        7.6155610359
  C        -0.9000422291        7.5150489012        8.0010623415
  C        -0.8733874396        6.9926413164        9.2605068018
  H        -1.6094213216        6.2083497098        9.5328027598
  H        -1.6530056657        7.1721035337        7.2845448239
  H        -0.0642960664        9.0505228688        6.6269417073
  H         1.5603051355        9.8757705032        8.3962514403
  H         1.6928594061        8.7832451454       10.5750899281
  C        -2.3106315974        7.9342440845       11.8688959955
  C        -3.2569586382        8.6187274770       12.6554076876
  H        -4.0584682274        9.1896851740       12.1487860527
  H        -2.3447332643        8.0210355244       10.7742090745
  C         2.0988621187        4.8810303952       15.8889455484
  C         1.2476209706        3.8108508423       16.2308326403
  C         1.2581959250        3.2622045970       17.5105299870
  C         2.1746814202        3.7673804239       18.4350914213
  C         3.0312128429        4.8108608657       18.1402346821
  C         2.9946591241        5.3640736826       16.8449842779
  H         3.7132693889        6.0603491274       16.4844152789
  H         3.6221379591        5.1760415870       19.0197267585
  H         2.2586803020        3.3857626463       19.4274821883
  H         0.5749808966        2.4987528548       17.8312478081
  H         0.3995779023        3.6465756063       15.5542318731
  C         4.3121042777        4.1107116573       14.4598456236
  C         5.2887689710        3.5440528182       13.7236726774
  C         5.3123651410        3.5992716995       12.3016291787
  C         4.3021240973        4.1904050403       11.5906810792
  H         4.3349400685        4.2033717415       10.5390332789
  H         6.0989563632        3.0234688547       11.8524959703
  H         6.2138999644        3.1293037833       14.2151576187
  H         4.4812940062        4.0307775367       15.5381117127
  C         2.0043031823        5.2117677693       10.1117084136
  C         1.1729704993        4.1942226169        9.5993431817
  C         1.1651388449        3.8298925057        8.2339881125
  C         2.0966639361        4.4135535157        7.3410693041
  C         2.9424036657        5.4069446689        7.8187946752
  C         2.8877177908        5.7430185607        9.2050140148
  H         3.6099956048        6.4478633956        9.6181445182
  H         3.6085655298        5.8738225567        7.1005703848
  H         2.2459371022        4.0109837194        6.3111964902
  H         0.4883144427        3.0321963871        7.8527383646
  H         0.4453703035        3.6342062856       10.2801827480
