140

  C         1.5575035480        1.1262522797       15.1425859734
  C         2.6202014645        1.8025650900       15.8640722783
  C         3.6767179209        2.4149400113       15.1342798284
  C         4.7535691638        2.9942380645       15.8567062717
  C         5.7311922891        3.7633267531       15.2313467737
  C         2.4203082845        2.2807342824       17.2831210419
  C         1.6908792271        3.4911779194       17.5299207522
  C         1.8109148067        4.0605477076       18.8141833168
  C         2.6023622630        3.4780626287       19.8464856915
  C         3.2533448404        2.2842332627       19.5743758034
  C         3.1262787677        1.6630003187       18.3711411447
  H         4.6331500180        3.0610027789       16.9420193412
  H         6.5560263264        4.1393257664       15.7991793603
  H         1.0344604545        3.9578364327       16.7905737637
  H         1.4597775541        5.0815992993       19.0102690076
  H         2.7056584192        3.9511898115       20.8352832039
  H         3.8853250133        1.8694786719       20.4452253135
  H         3.5762428089        0.6828611671       18.1217654218
  C         1.6002320339        1.2264000520       13.6749082050
  C         0.6408382971        0.5283138079       12.9109325212
  C        -0.5214359893       -0.0784485698       13.4891590940
  C        -0.5557547716       -0.1770021957       14.8958417594
  C         0.5075706311        0.3719106938       15.6631403012
  C         3.7465871770        2.4728564250       13.6999900461
  C         2.7184414384        1.8563719019       12.9824936999
  C         2.7196768784        2.1217812292       11.4792506283
  C         1.8182040753        3.0554567166       11.0148308435
  C         1.7680660415        3.4744300972        9.6958216292
  C         2.5302465407        2.7911264248        8.7550032230
  C         3.4433417965        1.7789495979        9.1727648112
  C         3.5607642433        1.4713423507       10.5693609444
  H         4.1787404727        0.6369235086       10.9203200908
  H         4.0189777408        1.1463357784        8.4672587993
  H         2.4951844882        3.1484474821        7.7315156781
  H         1.1423258811        4.3013831724        9.4318715550
  H         1.1248351341        3.4149684355       11.7499218149
  C         4.7787305159        3.1959861945       13.0977687681
  C         5.7637429378        3.8423163266       13.8272726227
  H         6.4470611206        4.4779502879       13.2584513854
  H         4.8580346606        3.3382888993       12.0399676671
  C         0.5907352182       -0.1013350641       17.0930851425
  C         1.4710266895       -1.1181980606       17.5081615172
  C         1.4762782451       -1.6297621538       18.7808725621
  C         0.5665221164       -1.2115288941       19.7529221344
  C        -0.3568385480       -0.2265526500       19.3821393754
  C        -0.3473167506        0.3099713539       18.0736972604
  H        -1.1068343130        0.9845325159       17.7503828445
  H        -1.0748082593        0.2074336972       20.1078803079
  H         0.6608237259       -1.5902818837       20.7747967323
  H         1.9636015440       -2.5527527110       19.0626510992
  H         2.2276133306       -1.5368470558       16.7589359125
  C        -1.5913359482       -0.8746106138       15.5716637680
  C        -2.6060131302       -1.3032168677       14.8282906435
  C        -2.6335151557       -1.2890874193       13.4369906711
  C        -1.6116903647       -0.7341631661       12.7179600680
  H        -1.7389049573       -0.6793059389       11.6195342114
  H        -3.4156602089       -1.8239016205       12.8846659711
  H        -3.5231459480       -1.6317688118       15.3536856575
  H        -1.5386409790       -1.0248770113       16.6898431058
  C         0.8017913534        0.2290481930       11.4203512671
  C         1.5487611462       -0.9209054525       11.0374339890
  C         1.5743849169       -1.3974471317        9.7309726184
  C         0.7187321224       -0.8608571014        8.7075195047
  C        -0.0573942299        0.2253980870        9.1251743289
  C        -0.0939028413        0.7312010974       10.4462463133
  H        -0.6921428302        1.5993058523       10.5379053347
  H        -0.6420601552        0.7932053677        8.3961280134
  H         0.6581297287       -1.2713202457        7.7337819460
  H         2.2536937297       -2.2090089168        9.4193729830
  H         2.1971390548       -1.3892103041       11.7246457179
  C        -1.9752369446        8.3184864314       14.8543346700
  C        -3.0449683242        8.9210368372       15.6314659194
  C        -4.2270904794        9.3498676865       14.8637686435
  C        -5.3738576417        9.9368422868       15.4881414393
  C        -6.4101581653       10.6264584877       14.8284514530
  C        -2.9549290559        9.1627113395       17.0444246507
  C        -2.0910006683       10.2053328823       17.4688705979
  C        -2.0393273773       10.5278340905       18.8575345747
  C        -2.8663317626        9.9234934260       19.7836981711
  C        -3.7586617225        8.9263245145       19.3867436360
  C        -3.6975087832        8.5067985734       18.0596553595
  H        -5.3467233934        9.9966623540       16.5686237407
  H        -7.2213009438       11.0059881332       15.4129132856
  H        -1.4352877753       10.7764210892       16.8887336569
  H        -1.3756638192       11.4393784521       19.0951280124
  H        -2.7897391777       10.2738500725       20.7928425696
  H        -4.5742558482        8.6211126982       20.0427903063
  H        -4.3950770951        7.7454965259       17.6808633583
  C        -2.0007664841        8.2945760570       13.3365021046
  C        -0.9658595396        7.7045973792       12.5797119790
  C         0.1248976951        7.0841340167       13.2640131931
  C         0.1446283166        7.1041595499       14.6806222883
  C        -0.9402016024        7.5759255878       15.4417740690
  C        -4.2081878220        9.3829709324       13.4130217618
  C        -3.1191403239        8.9152048678       12.6548606227
  C        -3.0143137458        9.4307534080       11.2656284566
  C        -2.2691805975       10.5908150839       11.0451627706
  C        -2.3473671214       11.2368926398        9.8488447417
  C        -3.1321129092       10.7229911676        8.8095539046
  C        -3.9603883857        9.6502306938        9.0410367088
  C        -3.9582742417        9.0564254058       10.2646919541
  H        -4.7370592061        8.3018850793       10.4810303519
  H        -4.6401382510        9.3120961496        8.2503570785
  H        -3.1551298608       11.1569105676        7.7920386911
  H        -1.7505866735       12.1284040964        9.6551869817
  H        -1.6351640809       10.9548426104       11.8186558010
  C        -5.2756593610       10.1417345631       12.8032028245
  C        -6.3345283347       10.6698949899       13.4306022621
  H        -6.9941289274       11.1386603790       12.7417202568
  H        -5.2306581955       10.2045215423       11.6983917768
  C        -1.0280205394        7.0641968806       16.8308934045
  C        -1.9590906578        6.0713893013       17.0742271366
  C        -2.2177598895        5.7237242316       18.3858344675
  C        -1.4784144217        6.2166293217       19.4369828537
  C        -0.4373190908        7.1031558708       19.1729529175
  C        -0.2654346058        7.5717897157       17.8668315330
  H         0.3746471422        8.4395314429       17.7174357377
  H         0.2055290875        7.2695269617       20.0079455899
  H        -1.6264897990        5.8656097961       20.4773345884
  H        -3.0049875917        5.0177461877       18.4418116283
  H        -2.3689066602        5.5758455338       16.1590316804
  C         1.1804412335        6.3526285418       15.3429977189
  C         2.2050641927        5.7600400644       14.5918184388
  C         2.1908857070        5.7056855328       13.1926427378
  C         1.1709735706        6.3450151448       12.5408528305
  H         1.2250178423        6.3113477408       11.4385422421
  H         2.8615241723        5.1419667850       12.5466493015
  H         2.9408472395        5.3023524079       15.1919029432
  H         1.2515296628        6.1810973538       16.3801627848
  C        -1.1978896188        7.3744656431       11.1429211051
  C        -2.1569399434        6.4231959880       10.7792590073
  C        -2.1796628933        5.9113601058        9.4663838361
  C        -1.2973867354        6.4090415969        8.5019552135
  C        -0.4075179220        7.4460949105        8.8690279279
  C        -0.3435090565        7.9311201631       10.2066763788
  H         0.3813584601        8.7283020798       10.5728211352
  H         0.2023790880        7.8586788543        8.1329148154
  H        -1.4134984752        5.9573635535        7.5206272571
  H        -3.0392764823        5.3516420748        9.0170585353
  H        -2.8097283363        6.0864558767       11.6024131878
