140

  C         4.9112219078       -1.3404901370       13.7724888454
  C         5.9096307215       -0.5974219372       14.4399820423
  C         7.0611934145       -0.1248126719       13.7323591952
  C         8.0978757299        0.5041894947       14.4265836033
  C         9.0960198977        1.1917035724       13.7014278581
  C         5.8116570773       -0.2452814900       15.8820390180
  C         4.9026143452        0.7386972930       16.2334703205
  C         4.7448703141        1.1511319714       17.4851500123
  C         5.5718365032        0.6674982559       18.5166330731
  C         6.4583960549       -0.4072178567       18.1606860909
  C         6.5747645981       -0.8634884498       16.8784782397
  H         8.1453633766        0.7271092697       15.5128308517
  H         9.8737594385        1.8457348751       14.1498882303
  H         4.2506453483        1.0167787939       15.4109511756
  H         3.9458698763        1.8797495376       17.6332974375
  H         5.4302010679        1.0247104494       19.5580908478
  H         7.1212214295       -0.8860648846       18.8623939024
  H         7.2277450268       -1.6694149184       16.6774003145
  C         4.8768029609       -1.2403563278       12.3155182411
  C         3.7883067775       -1.8004315007       11.5978726123
  C         2.7110850723       -2.3085597662       12.3260620476
  C         2.6848174412       -2.4439032728       13.7389750792
  C         3.8172255401       -2.0332526039       14.4714949909
  C         7.1053106182       -0.2090081229       12.2693157060
  C         5.9816840004       -0.6730272179       11.6237139819
  C         5.9503012488       -0.2997284982       10.1499303072
  C         5.1721020345        0.7779019083        9.7821178021
  C         5.2554404354        1.3339796148        8.5187176081
  C         6.1267180765        0.6549655300        7.6110369886
  C         6.6671056313       -0.6148947526        7.9092763513
  C         6.6380127651       -1.0713076914        9.1912185771
  H         7.1584193604       -1.9430980809        9.5261898716
  H         7.2860489393       -1.1843114453        7.2480631695
  H         6.1474068983        1.0497738094        6.5878358330
  H         4.7108596021        2.2414876235        8.2294246960
  H         4.4497019316        1.1743999449       10.4887909840
  C         8.1716861677        0.3836848344       11.6279007149
  C         9.0761874325        1.0813850011       12.3385510664
  H         9.9170542996        1.5096444855       11.8419514472
  H         8.3043391746        0.3973194028       10.5665618358
  C         3.8142279016       -2.3786303646       15.8915319923
  C         4.6624308062       -3.4602843712       16.2771579676
  C         4.7015613629       -3.9365078619       17.5943935406
  C         3.8793863865       -3.3154574243       18.5641821676
  C         3.0010997579       -2.2896051645       18.1628224974
  C         2.9976839642       -1.7153360662       16.8264514558
  H         2.4796844717       -0.8558807848       16.5276494068
  H         2.5242692981       -1.7609401963       18.9381322950
  H         4.0026012547       -3.6396170953       19.6124240200
  H         5.5233380688       -4.6260533442       17.8740985172
  H         5.2912499144       -3.9622263260       15.5147399390
  C         1.6157325304       -3.0892535987       14.4398258786
  C         0.5603418434       -3.5857289730       13.6994252589
  C         0.5554502624       -3.4894629435       12.2936903149
  C         1.6721037628       -2.9615450682       11.6192274100
  H         1.6325779338       -3.0902110271       10.5248930389
  H        -0.3127271819       -3.9690898421       11.7927214845
  H        -0.3031967016       -4.0737754234       14.2263872718
  H         1.6075811328       -3.2572236687       15.4806911907
  C         3.8680435681       -2.2569576243       10.1096220138
  C         4.6069395526       -3.4012765672        9.7592676809
  C         4.4627332907       -3.9746113729        8.4418094976
  C         3.5583694867       -3.4142438150        7.5414340491
  C         2.9269879202       -2.2145065587        7.8203224860
  C         3.0841884441       -1.7025594245        9.0981846783
  H         2.6720910534       -0.6898455252        9.3142447989
  H         2.2164220853       -1.7823383541        7.0792096962
  H         3.3664776291       -3.8870437353        6.5447275875
  H         5.1557811598       -4.7846229878        8.0863568072
  H         5.3290648243       -3.8646379343       10.4958526748
  C         1.4595426991        6.0335054446       13.8947910282
  C         0.3191698691        6.7470131601       14.5253617781
  C        -0.8155964994        7.1297586609       13.7581188696
  C        -1.9693186339        7.6687282802       14.4063210716
  C        -3.0204580471        8.1787596455       13.6948283492
  C         0.4417908120        7.1303740432       15.9222277186
  C         1.2684887075        8.2549998956       16.2528997657
  C         1.3528238793        8.6808213195       17.5755012403
  C         0.4921677536        8.1393461574       18.5322215357
  C        -0.4308291621        7.1526637370       18.1958003045
  C        -0.4115623906        6.5672689497       16.8708674794
  H        -2.0291542190        7.5250865738       15.4513295729
  H        -3.8494259604        8.6733187551       14.1557645071
  H         1.8604506401        8.6275018113       15.4100314441
  H         2.0590467203        9.4517896034       17.8181079328
  H         0.4675418882        8.6995014591       19.5447300710
  H        -1.1540130405        6.7131240515       18.9144913347
  H        -0.9482763088        5.6342090905       16.6764065153
  C         1.5090982528        5.9131451566       12.4443148462
  C         2.4712238584        5.0951401595       11.7619786511
  C         3.5304128039        4.5276277977       12.5076282165
  C         3.5144227157        4.7226055979       13.9523667257
  C         2.4053578343        5.2847594651       14.6196903238
  C        -0.6376680196        7.2068103491       12.3283684717
  C         0.4588098742        6.6301257925       11.6937533479
  C         0.4566682454        6.7978846537       10.2024825338
  C         1.2798848995        7.7760613628        9.7187890874
  C         1.2565615591        8.1636065831        8.3827338721
  C         0.3219617661        7.6125487669        7.4843659947
  C        -0.6100354500        6.6889155446        8.0088302279
  C        -0.5426147796        6.3321051517        9.3797195079
  H        -1.3196977835        5.5962478504        9.7412054884
  H        -1.2900496161        6.1713796610        7.3924229929
  H         0.2528317853        8.0043272393        6.4500052982
  H         1.9431771259        8.9550079848        8.1044817481
  H         1.9445887369        8.2378910925       10.3833829129
  C        -1.7999233023        7.7872946323       11.6067352428
  C        -2.9130609019        8.2716967560       12.2820916039
  H        -3.7319665889        8.8889258438       11.8518001225
  H        -1.6166506621        7.7913276122       10.5641894939
  C         2.2179477634        4.8470752560       16.0694475099
  C         1.3714475706        3.8158780721       16.4236371036
  C         1.2603909120        3.3846263759       17.7974779976
  C         2.0185451183        4.0202611531       18.7940640139
  C         2.8695115215        5.0617461535       18.4315045494
  C         2.8909142230        5.4833057878       17.0958932614
  H         3.4790713887        6.3024758026       16.7135113542
  H         3.5150889467        5.5073690490       19.1253513268
  H         2.0587145683        3.6682250485       19.8242333519
  H         0.6133854656        2.6038904469       18.0761639285
  H         0.6513169601        3.3674281797       15.7175627776
  C         4.5800069216        3.9956079067       14.6831478490
  C         5.6127273560        3.3444098828       14.0307917369
  C         5.6635368754        3.2826749240       12.6237087132
  C         4.6289353754        3.7922668047       11.9405761711
  H         4.5376521357        3.6055610970       10.8400052983
  H         6.4113304728        2.6968751070       12.1533529205
  H         6.4037465339        2.8064263102       14.5042973068
  H         4.5934818754        4.0166859648       15.7906026453
  C         2.3216593770        4.7757078429       10.3008234890
  C         1.4804910148        3.6780794443       10.0026017080
  C         1.3540748364        3.2209251442        8.7080634416
  C         2.1816155933        3.7592790051        7.6987601527
  C         2.9930754685        4.8610814547        7.9611079616
  C         3.1136144448        5.3388041137        9.2902453439
  H         3.8257042091        6.0731521326        9.5541896174
  H         3.5993232477        5.2727592940        7.1211683765
  H         2.1722246721        3.4215171686        6.6581730930
  H         0.7264711972        2.3115701888        8.5327016536
  H         0.9172736109        3.2429871549       10.7970824779
