140

  C         5.5931906657       -0.4707120257       16.1877428142
  C         6.5756984270        0.2365079238       16.8989397731
  C         7.7164918159        0.7174216228       16.1825300167
  C         8.8527728421        1.3340675507       16.8123409435
  C         9.8929218978        1.9398075966       16.1491062616
  C         6.4888129388        0.6378042969       18.3329630153
  C         5.7196731578        1.7269027118       18.8383780537
  C         5.7476587618        1.9750549865       20.2117691865
  C         6.7850987522        1.5141631985       21.0596770936
  C         7.6311662174        0.5246152460       20.6214625531
  C         7.4212331876        0.0579797599       19.2955998985
  H         8.8432901275        1.3242358098       17.8872278981
  H        10.6458152932        2.4454579231       16.7481354902
  H         4.8925493517        2.1106708107       18.1934246644
  H         5.2441206245        2.8611605777       20.5541397353
  H         6.8157294062        1.9074229403       22.0860522068
  H         8.5142859387        0.2158845654       21.2412288609
  H         8.0473550246       -0.7721797611       18.9934636048
  C         5.6059822640       -0.4521623690       14.6934221635
  C         4.4929405192       -1.0608846024       13.9664503947
  C         3.3665296691       -1.5972972548       14.6656681160
  C         3.4566995953       -1.7181081989       16.1636414982
  C         4.5767544735       -1.1903294651       16.8722349974
  C         7.7914685903        0.6140478467       14.6900296619
  C         6.6603132212        0.1487933570       13.9903602570
  C         6.5709817505        0.4867294798       12.5065247247
  C         5.7039553629        1.5915833096       12.1713788605
  C         5.6485231333        2.2155427955       10.8907618947
  C         6.4125755589        1.6034544905        9.9240254551
  C         7.2735327941        0.4769508804       10.2058067476
  C         7.3940616312       -0.0013479490       11.4896252624
  H         8.0319475555       -0.8767582081       11.7429967592
  H         7.8053601542       -0.0240810030        9.3884946702
  H         6.4442708057        1.9190576163        8.8851015563
  H         4.9711601133        3.0635271901       10.7518374474
  H         5.1957629669        2.0482647872       13.0284630332
  C         8.8742912017        1.2701037144       13.9752545738
  C         9.8874669743        1.9799486378       14.6842966935
  H        10.7387404215        2.3272710742       14.0953925793
  H         8.9657517550        1.1447536650       12.9045330686
  C         4.6819081351       -1.4062644294       18.3261694117
  C         5.6980052914       -2.2735297462       18.7655174669
  C         5.7162268810       -2.7140384793       20.1027248355
  C         4.7835539713       -2.1869775903       21.0011862473
  C         3.6716409961       -1.4717186757       20.5544375785
  C         3.5784364432       -1.0938571907       19.1770377298
  H         2.7359029527       -0.5255635325       18.8148238484
  H         2.8773188143       -1.2888576798       21.2215746206
  H         4.8218647358       -2.5420050703       22.0616621756
  H         6.5696723281       -3.2903933169       20.3796747285
  H         6.4452748409       -2.6497499434       18.1470654268
  C         2.4719407102       -2.5489523625       16.8524685732
  C         1.4418809352       -3.1174693786       16.1599214171
  C         1.3202129417       -2.9290657425       14.7665607782
  C         2.2627870531       -2.2573541116       14.0200277719
  H         2.3210588180       -2.3022659848       12.9411564394
  H         0.4233689168       -3.3493634100       14.2896021248
  H         0.6061217170       -3.5884207793       16.6427256031
  H         2.6008282267       -2.6564350456       17.8882467057
  C         4.5231820669       -1.4965615182       12.4844859252
  C         5.3576872795       -2.5806366699       12.2035616063
  C         5.4861805452       -3.0939704263       10.9286329368
  C         4.6753490312       -2.5113527716        9.8981074498
  C         3.8013177908       -1.4575652261       10.2325368874
  C         3.8726201480       -0.8543827388       11.4701892953
  H         3.3012183139        0.0747294488       11.7085405223
  H         3.1140032719       -1.1344197894        9.4695673339
  H         4.8679451711       -2.6432878495        8.8389534196
  H         6.2220348167       -3.8071201079       10.5934314126
  H         5.7862278364       -3.1099977252       13.0878345669
  C         2.0571980734        7.0575991568       16.1228695425
  C         0.9843713081        7.6583316750       16.8547598575
  C        -0.1566972853        8.0691830628       16.1463890255
  C        -1.1631354820        8.7318427592       16.8349835832
  C        -2.2202285663        9.3556235503       16.2083428463
  C         1.1421008363        7.8615517596       18.3537332890
  C         2.0898354597        8.8186858327       18.6876947840
  C         2.0356978621        9.3223296555       19.9754447826
  C         1.1502346160        8.8239036095       20.9141286277
  C         0.2564334804        7.8491672216       20.5795126123
  C         0.2359731706        7.3394009658       19.2699180095
  H        -1.0696830470        8.8264250108       17.9123188198
  H        -2.9501076977        9.9269034013       16.6868528869
  H         2.7243386210        9.2969262537       17.9331530782
  H         2.7814228485       10.0414266993       20.3116653204
  H         1.0961499198        9.2748052921       21.9491542593
  H        -0.4188417712        7.4583425295       21.3133779321
  H        -0.5528072923        6.6977649171       19.0430160071
  C         2.0500457224        6.9892111016       14.6801903740
  C         3.0043232590        6.1382329146       13.9644371302
  C         4.0850443794        5.5957884306       14.6841882072
  C         4.1603336582        5.8228964210       16.1005541781
  C         3.1196703245        6.4148107440       16.8371360972
  C        -0.1688672384        8.0919338533       14.7061362633
  C         0.9441844491        7.6466772566       14.0085871337
  C         1.1120648073        8.0114031883       12.5974409224
  C         2.1349788334        8.8891629901       12.1806868203
  C         2.2917349829        9.0983663771       10.7905844369
  C         1.3757366429        8.6156764511        9.8801652061
  C         0.3232612965        7.7962160671       10.3556220887
  C         0.2155765142        7.4840426963       11.6873758057
  H        -0.6376608327        6.8144736939       12.0177442960
  H        -0.4751642201        7.4184882399        9.7056537999
  H         1.4299399230        8.8858259090        8.8613354338
  H         3.0246360596        9.7531285710       10.3928956277
  H         2.7549404980        9.3793610543       12.9022370931
  C        -1.2844532515        8.7666628808       14.0763029042
  C        -2.3374670852        9.3146379644       14.8097741309
  H        -3.2188378207        9.7032476444       14.3286954959
  H        -1.2878465466        8.7384170602       12.9982139617
  C         3.1217825851        6.0797609412       18.3147318601
  C         2.2367551191        5.0932305732       18.7623345862
  C         2.3853631127        4.5777257253       20.0336019159
  C         3.3629000168        4.9579647322       20.9460130441
  C         4.2521937265        6.0180922417       20.5389895627
  C         4.0317927239        6.5728199229       19.2667453745
  H         4.4958852280        7.5055372658       18.9521365082
  H         5.0889871100        6.2772854974       21.1471463470
  H         3.5310815706        4.4647202802       21.9015217664
  H         1.7762599231        3.7040275179       20.3287919212
  H         1.3358821599        4.7861624714       18.2127308237
  C         5.3702383761        5.3801991845       16.7443653894
  C         6.2700923278        4.5284690282       16.0877887272
  C         6.1665356392        4.2619811955       14.6944595973
  C         5.0636646384        4.8111559980       14.0218323262
  H         5.1701477402        4.7673849131       12.9754782092
  H         6.9309224058        3.7035894422       14.2309709889
  H         7.0826267002        4.0590848669       16.7045573823
  H         5.4405716917        5.6651673861       17.7541413414
  C         2.8194173542        5.6982153249       12.5206548705
  C         1.9134745302        4.6564185859       12.2459715359
  C         1.8406169538        3.9871673140       11.0537255231
  C         2.6108726703        4.4965569448        9.9957129293
  C         3.3929133819        5.6392881452       10.2082009447
  C         3.4979895671        6.2173424952       11.4633514790
  H         4.0908783913        7.0990371737       11.6320843638
  H         3.9760100145        6.1185316151        9.4462945629
  H         2.5517791747        4.0654833004        8.9952797493
  H         1.1509275107        3.1311901849       11.0267188555
  H         1.2546648050        4.3647499813       13.1177061604
