140

  C         3.6803196770        0.0687074841       14.4776903255
  C         4.7178310380        0.7618700128       15.1912533802
  C         5.7787633173        1.2949294663       14.4628854255
  C         6.8201976312        2.0469000546       15.1178369101
  C         7.9006657321        2.5390957573       14.4169568464
  C         4.6130800288        1.1448515880       16.6147365705
  C         3.6325696305        2.1594794073       16.8733344689
  C         3.6100720536        2.7999767186       18.1242132203
  C         4.4881432887        2.3936876760       19.1350970515
  C         5.3990985864        1.4445171936       18.9113701188
  C         5.4626740946        0.7691888649       17.6878580661
  H         6.6565416393        2.2378923812       16.1598974814
  H         8.6778011219        3.1412103784       14.9290740771
  H         3.0065303771        2.4010808076       16.0109295850
  H         2.7801011508        3.5254924420       18.2149109429
  H         4.5123912043        2.9179385391       20.0982836079
  H         6.1211880324        1.2117734005       19.7424838860
  H         6.0983536024       -0.0446905742       17.4633899940
  C         3.5820647999        0.0801132261       12.9973827331
  C         2.4441192227       -0.4970918881       12.3418558458
  C         1.4445702339       -1.0399022031       13.1050010873
  C         1.5054466305       -1.1384998384       14.5592669935
  C         2.5632172082       -0.5165628225       15.2417461213
  C         5.8186494703        1.1345865567       13.0747367186
  C         4.7079043765        0.6710444253       12.3501419778
  C         4.7781646183        0.9780820621       10.8853365600
  C         3.9462591255        2.0612205933       10.4191104029
  C         3.9410584252        2.4062559259        9.0388348018
  C         4.7251229553        1.6540872849        8.1053194827
  C         5.5594950683        0.6471994068        8.5401346220
  C         5.5885101721        0.3483528856        9.9378104909
  H         6.2980919498       -0.3935501709       10.3177613864
  H         6.1836474121        0.0352676468        7.9306043261
  H         4.6097998668        1.8901574274        7.0225067207
  H         3.1326536203        3.0623047765        8.7411522690
  H         3.4486682821        2.5921589202       11.1857178733
  C         6.9764257394        1.5380723779       12.4144174181
  C         8.0085946996        2.2538977095       13.0404582620
  H         8.7526165425        2.7624595077       12.4879514766
  H         7.0126747707        1.5478556835       11.3345758840
  C         2.7709250380       -0.8839137072       16.7095155272
  C         3.7400388097       -1.8593670330       17.0051232363
  C         4.0103340398       -2.2550115387       18.3072512788
  C         3.1245786070       -1.7799232636       19.2649049221
  C         2.0417180797       -0.9310147460       18.9870484019
  C         1.9039256943       -0.4494709519       17.7163972575
  H         1.0516402433        0.2076526453       17.4664304336
  H         1.2340296851       -0.7660007663       19.6848653016
  H         3.2463435375       -2.0537152023       20.2509699259
  H         4.9659101896       -2.7837381295       18.5368214637
  H         4.3915014296       -2.1821851443       16.1631928209
  C         0.4619838935       -1.8280445964       15.2931713247
  C        -0.5656269781       -2.4612578501       14.6379264406
  C        -0.6601726854       -2.3285068217       13.2097272245
  C         0.3102444396       -1.6890778702       12.5274706666
  H         0.0793958867       -1.6747108437       11.4658717912
  H        -1.3997550963       -2.8890875713       12.7017259664
  H        -1.2124108304       -3.0195218100       15.2540623771
  H         0.4893569461       -1.8427956667       16.3436297952
  C         2.5462717262       -0.8574326499       10.9092729942
  C         3.5690359608       -1.8027532457       10.5765562120
  C         3.6921257113       -2.1910032981        9.2655901230
  C         2.8102295017       -1.7230386399        8.2540004940
  C         1.8736340345       -0.7904366626        8.5162567658
  C         1.7616284332       -0.3511016040        9.8593045535
  H         0.9962577332        0.3614850450       10.1316381937
  H         1.1578578918       -0.3792120522        7.7762101607
  H         2.8047498643       -2.1834724891        7.2288973294
  H         4.3402492489       -3.0123692073        8.9600834122
  H         4.1829756516       -2.2821454178       11.3589729309
  C        -0.0110357860        7.1809519493       14.3449814281
  C        -1.0536259970        7.8495530224       15.0982339322
  C        -2.1486079242        8.3703213019       14.3329446519
  C        -3.1442882533        9.1328045896       15.0029593755
  C        -4.0783803917        9.8159747770       14.2542971704
  C        -0.8736160327        8.3984470789       16.5033143841
  C         0.0428819219        9.3971923013       16.7182263183
  C         0.1332398639       10.0498934987       17.9555146439
  C        -0.6973598727        9.7180596134       19.0155330544
  C        -1.6596586970        8.6991500835       18.7945738301
  C        -1.7955860788        8.1052932394       17.5456752874
  H        -3.2931827312        9.0902229082       16.0850236651
  H        -4.8768856766       10.3579859121       14.7808422425
  H         0.7903968393        9.6185188925       15.9325294223
  H         0.8501348323       10.8597320603       18.0819812977
  H        -0.6160922260       10.2718136001       19.9644234428
  H        -2.3688764454        8.4097604638       19.6020830584
  H        -2.5172299100        7.3438757924       17.2595681571
  C         0.0095940083        7.1884738000       12.8650888848
  C         1.0956875319        6.4940832157       12.2281521703
  C         2.1260034701        5.8953717625       12.9923927658
  C         2.0052087296        5.7748443924       14.4573470361
  C         0.8864852484        6.4474696872       15.1069808404
  C        -2.0328260942        8.5266313323       12.8672947779
  C        -1.0129837044        7.9121347901       12.1497935249
  C        -0.8203494312        8.3680079481       10.7358070707
  C         0.1198588297        9.3204322023       10.4610364245
  C         0.1862538159        9.9871060603        9.2197258878
  C        -0.6161037392        9.4595057750        8.1558616283
  C        -1.5824092913        8.4726050671        8.4522193722
  C        -1.7335900335        7.9090497987        9.6821209681
  H        -2.4314356329        7.1312397934        9.9392964937
  H        -2.1534249917        8.2285601810        7.5150343435
  H        -0.4919716605        9.9320109544        7.2039592401
  H         0.9079305979       10.8027075813        9.1675580372
  H         0.7703896636        9.6358808428       11.2734828750
  C        -2.9717326183        9.3389650359       12.1471611253
  C        -4.0729481467        9.9371836361       12.8152840518
  H        -4.9345395980       10.3478247652       12.2404705060
  H        -2.9109750842        9.3285536526       11.0563335223
  C         0.8284742684        6.2032701471       16.5787256622
  C         0.0823778259        5.1087714315       17.1217162909
  C         0.3762063055        4.5972434487       18.3977095967
  C         1.3049690409        5.2145868878       19.2121485657
  C         2.0109677136        6.2524454588       18.6910570673
  C         1.8376048430        6.7362018387       17.4213349474
  H         2.4667647296        7.5166136621       17.0337695671
  H         2.7475885487        6.7395265016       19.3664447208
  H         1.5229612002        4.8639651631       20.1968357792
  H        -0.1443969007        3.7478766391       18.8119595091
  H        -0.7048571972        4.6643061367       16.5176947907
  C         3.0400776400        5.0396307922       15.1475045629
  C         4.2046024128        4.5920601878       14.5573696227
  C         4.3676821413        4.7990486807       13.1687046139
  C         3.3807787056        5.3838595890       12.4356331058
  H         3.4582422431        5.4074729665       11.3289401044
  H         5.2410981312        4.5395674208       12.5904844686
  H         5.0135005657        4.3779795687       15.2295054459
  H         3.0012683557        4.8942591051       16.2090257257
  C         1.1887125898        6.2747465518       10.7558669523
  C         0.3613779737        5.2617152357       10.2118402421
  C         0.3348334317        5.0062200627        8.8438765553
  C         1.1991500810        5.6817743596        7.9641452173
  C         2.0900050263        6.6040648870        8.5418364265
  C         2.0365841689        6.9591272410        9.8830974091
  H         2.6729208350        7.6719149022       10.3503208955
  H         2.7650649592        7.1448185930        7.8744596996
  H         1.1803727157        5.4594234462        6.9034744626
  H        -0.3467623634        4.2140292254        8.4927895543
  H        -0.4310397391        4.7368790754       10.7593708681
