140

  C        15.3181672957       -0.3474500434        2.2359224121
  C        16.2963529581        0.4402026089        2.8659601506
  C        17.3466189060        1.1393601395        2.1845532125
  C        18.3387310911        1.8268351960        2.8667288885
  C        19.4573223458        2.3710974332        2.2302928150
  C        16.0752750375        0.8177875840        4.2483793195
  C        15.0910769002        1.7960523372        4.5747376555
  C        15.0459538287        2.3925019232        5.9025134018
  C        15.9593352490        2.0404034765        6.8871789346
  C        16.8424734110        0.9701756974        6.5664970637
  C        16.9098316899        0.3259497403        5.3048977061
  H        18.3534069284        1.9702094946        3.9996998634
  H        20.1850358559        2.9308743439        2.8361119761
  H        14.3027439925        2.0341436396        3.9012004132
  H        14.2276752099        3.0689833735        5.9754873633
  H        16.0426356463        2.6544160624        7.8048722914
  H        17.5881948828        0.6624816960        7.2299802252
  H        17.6477816399       -0.3555525356        4.9362506641
  C        15.3254322380       -0.3958703479        0.7747290873
  C        14.1948539750       -1.0636109643        0.1932391838
  C        13.1113659064       -1.5165634904        0.9594673180
  C        13.1912392082       -1.5206800560        2.4115822716
  C        14.2633478619       -0.9236633021        3.0881518941
  C        17.3748674721        1.0044949838        0.7339741743
  C        16.3092420462        0.3258158145        0.1344828612
  C        16.1781245739        0.7531919631       -1.2837796612
  C        15.6350938639        1.9857212530       -1.6946916330
  C        15.6371022870        2.4929897954       -2.9985500375
  C        16.4048496833        1.8951633159       -4.0429199972
  C        16.9667212971        0.6500245637       -3.6141686039
  C        16.8871183574        0.1206319557       -2.2712929107
  H        17.5943176651       -0.6756650768       -2.0068393517
  H        17.5854472988        0.0404802125       -4.3029769543
  H        16.4756663540        2.2539590434       -5.0789336758
  H        15.1691844040        3.4380062454       -3.1782037678
  H        15.0108064583        2.5510824997       -0.9656267921
  C        18.4915683477        1.6741509770        0.0991346680
  C        19.5004398429        2.3142199208        0.7867047005
  H        20.3139704614        2.7624350093        0.2173876581
  H        18.5041013519        1.8466729496       -0.9984387499
  C        14.3464382291       -1.2124134882        4.5525406650
  C        15.2491940068       -2.1479655700        5.0706084284
  C        15.2872930284       -2.4630377404        6.4344398983
  C        14.3045532153       -1.9992682054        7.3001576463
  C        13.3322794444       -1.1585840590        6.8386858617
  C        13.3369968239       -0.7386777784        5.4893998488
  H        12.6668538951        0.0955110733        5.1554719387
  H        12.4463951513       -0.8458305263        7.5005257605
  H        14.1477202678       -2.4994409702        8.3557744502
  H        15.9614074919       -3.3085587495        6.8260644685
  H        16.0411556774       -2.4217574150        4.3237522169
  C        12.1414345401       -2.1471650812        3.1635681737
  C        11.0970548196       -2.7614861678        2.5365811705
  C        10.9388740131       -2.6815364981        1.1140334036
  C        11.9293795058       -2.0779562829        0.3985994328
  H        11.9567475587       -2.0972527973       -0.6785925500
  H        10.1896392633       -3.2295850074        0.5503784926
  H        10.3341910888       -3.2534346129        3.1810308592
  H        12.2808448083       -2.3740735202        4.2029409707
  C        14.1953363217       -1.3829272866       -1.3200439240
  C        14.8638667540       -2.5943235239       -1.6684058912
  C        14.8962032717       -2.9935282323       -3.0305736195
  C        14.2031981781       -2.2633273444       -3.9623446906
  C        13.5595436017       -1.0499947031       -3.6239178373
  C        13.6475256155       -0.5734753560       -2.3253229790
  H        13.2511733423        0.3764803271       -1.9687394492
  H        13.0318259082       -0.4404013767       -4.4267040354
  H        14.2485242713       -2.5900883767       -5.0460887445
  H        15.3035456826       -3.9890945712       -3.2505580456
  H        15.3482032108       -3.2531163951       -0.9145678336
  C        11.5358335749        6.9826369897        2.2436089257
  C        10.5561106907        7.7098149366        2.9321896729
  C         9.4442068517        8.1859683467        2.1842726487
  C         8.3625130481        8.8918995046        2.8873609086
  C         7.3421147460        9.5866591907        2.2923403113
  C        10.7424027693        8.0776382462        4.3473425111
  C        11.6789361561        9.1265050586        4.6294387008
  C        11.8721292675        9.5617051261        5.9606956039
  C        11.0439012635        9.1347042341        6.9724695216
  C         9.9941261404        8.3102575917        6.6187586897
  C         9.8226370154        7.8111112331        5.3058475916
  H         8.4230258270        8.8245284406        3.9645967944
  H         6.6682549231       10.2468071017        2.8484624482
  H        12.2535844279        9.6068975182        3.8211144602
  H        12.6334821252       10.3425868710        6.1975372190
  H        11.1553297359        9.5204329446        7.9629664898
  H         9.2960012848        7.9513793709        7.4307055930
  H         8.9796818094        7.1379584434        5.1186532301
  C        11.5084747930        6.9430645821        0.7661207917
  C        12.5299836401        6.2614845860        0.1323179544
  C        13.6130860395        5.7129426433        0.8528906923
  C        13.6542643929        5.7355018581        2.2708944259
  C        12.5379224067        6.3098368143        2.9548252151
  C         9.3961863963        8.2212637025        0.7672148019
  C        10.4203959311        7.5851115934        0.0374484322
  C        10.4411164800        7.8985188573       -1.4500494681
  C        11.2917845820        9.0599257582       -1.8003798882
  C        11.3990190067        9.4814403475       -3.0887779744
  C        10.5543593091        8.9854380398       -4.0788417777
  C         9.7301215146        7.9177767678       -3.7842110090
  C         9.7263082958        7.3221686898       -2.4742804321
  H         9.0398033785        6.5004108776       -2.3042009173
  H         9.1052396435        7.4661206166       -4.5999957417
  H        10.4942924426        9.4461924690       -5.0751211693
  H        11.9212311163       10.4426317733       -3.2004374872
  H        11.7909334143        9.5418918626       -1.0434087276
  C         8.3245928426        8.9445340280        0.1357522388
  C         7.3381057489        9.5729225786        0.8746516190
  H         6.5599950168       10.0897645259        0.3153171744
  H         8.4324300611        8.8908026207       -0.9854766536
  C        12.3930311223        6.0571980125        4.4223123719
  C        11.5991725524        4.9891707603        4.7502978625
  C        11.6076429200        4.5139314204        6.0230323363
  C        12.3894867635        5.0924961769        7.0437760774
  C        13.2876301436        6.1341732660        6.7265729994
  C        13.2510897973        6.6135455547        5.4019689204
  H        13.9017220219        7.4466772246        5.1373157225
  H        13.8154345758        6.6578880811        7.4921411604
  H        12.3269037052        4.8288653449        8.0632153470
  H        10.9338140749        3.6748173542        6.3026730147
  H        10.9413119664        4.4743799579        4.0171900285
  C        14.7869632197        5.2381193884        3.0569644076
  C        15.8935859608        4.7500033674        2.3768772934
  C        15.8542952821        4.5557095934        0.9583519612
  C        14.7064817005        5.0348607838        0.2695735132
  H        14.7256290856        4.9199057020       -0.8485340951
  H        16.6047308091        4.0085503947        0.4043430732
  H        16.7630233580        4.3232679233        2.8055672309
  H        14.7098968956        5.3455501911        4.1418579144
  C        12.5252368657        5.8821421902       -1.2862351175
  C        11.7749308356        4.7981375477       -1.7192797713
  C        11.9137540437        4.2583512549       -3.0280351506
  C        12.7084163747        4.9426807690       -3.9439110292
  C        13.4216320113        6.0938845097       -3.5970454017
  C        13.4118143973        6.4819513749       -2.2321717573
  H        14.0809299958        7.2571794105       -1.7894731209
  H        14.0952515820        6.6093697051       -4.3035426913
  H        12.8116898471        4.5569454495       -4.9615673833
  H        11.2662879649        3.4234124647       -3.4010329863
  H        11.1592023088        4.3251875079       -0.9345667878
