140

  C         1.2927006679        1.3457282043       15.0685112586
  C         2.2794739283        2.1602660115       15.7736532979
  C         3.4235504960        2.7309031936       15.0761424128
  C         4.4413817195        3.4667763784       15.7562161090
  C         5.4907608138        4.0055177513       15.0380727328
  C         2.1160577984        2.4420259416       17.2441845807
  C         1.2873238586        3.4825264040       17.5934129613
  C         1.0798785410        3.8975484240       18.9187981375
  C         1.8203153893        3.2570356402       19.9149352020
  C         2.7660388148        2.2805147074       19.6154462148
  C         2.8550703744        1.7849702875       18.2983257542
  H         4.4686804018        3.4814348971       16.8704440161
  H         6.1560915560        4.5576188186       15.6632450421
  H         0.5900698116        3.8108845302       16.8219877433
  H         0.3982209433        4.7221137536       19.0853270216
  H         1.6459481319        3.6253119599       20.9366229922
  H         3.3914326145        1.8325335097       20.3602207529
  H         3.6628019701        1.0497035868       18.0504544129
  C         1.3227269778        1.3451482814       13.5787711962
  C         0.4052850104        0.6129416803       12.8644705690
  C        -0.6922668014       -0.0333484698       13.5601916678
  C        -0.7534859929       -0.0396124927       15.0073696037
  C         0.2535646088        0.5989570205       15.7266334626
  C         3.4487547399        2.6342551615       13.6165869935
  C         2.4061445756        2.0013403483       12.8706312044
  C         2.4800915585        2.2570907916       11.4368931006
  C         1.6158152739        3.1336491635       10.8510558019
  C         1.5534916764        3.3728825719        9.5009071903
  C         2.3572530175        2.7000281694        8.6547297788
  C         3.2562113792        1.7241455010        9.1751004971
  C         3.3653711129        1.5404882834       10.5609861129
  H         4.0002970064        0.7555631453       11.0140169016
  H         3.7874179355        1.1853219989        8.3404840350
  H         2.3327163189        3.0314299247        7.6260401207
  H         0.9074177790        4.1690588806        9.1096670648
  H         1.0311635883        3.8518114405       11.4888138954
  C         4.5725756093        3.2914424759       12.9572511793
  C         5.5587120984        3.8933659078       13.6565677981
  H         6.3307052212        4.4609803985       13.1189300263
  H         4.6841787482        3.2026104023       11.8455539462
  C         0.3329042716        0.3255223066       17.2160394530
  C         0.8684297977       -0.9790408022       17.4280878047
  C         0.7357467253       -1.5931426077       18.6888980952
  C        -0.0837058061       -0.8384758058       19.6822141392
  C        -0.6858006673        0.3789329675       19.4409854814
  C        -0.4748336550        0.9135349582       18.2004284713
  H        -0.9855542037        1.7773253140       17.9500272966
  H        -1.1476036330        0.9237607470       20.2772400615
  H        -0.1949523007       -1.3806001258       20.6659116478
  H         1.1277507972       -2.4889507591       18.9764310218
  H         1.3968463870       -1.4186426929       16.5404411068
  C        -1.7464148990       -0.7987867870       15.6681483371
  C        -2.8379254603       -1.2432146212       15.0077251991
  C        -2.8950929252       -1.1690228838       13.5442003146
  C        -1.8139113639       -0.6392298615       12.8781133917
  H        -1.8394766056       -0.7166791790       11.7774746653
  H        -3.6892150451       -1.5454025151       12.9131190995
  H        -3.7363934842       -1.5965004011       15.4864897660
  H        -1.7036302501       -0.8608999883       16.7109494868
  C         0.5488854449        0.2545133545       11.4289357460
  C         1.4336860967       -0.8020878022       11.1203762970
  C         1.4512307375       -1.3581727968        9.7710937310
  C         0.5698759207       -0.8473707712        8.7967932709
  C        -0.2603072516        0.2442460852        9.1645634046
  C        -0.3152124512        0.7785946625       10.4874150532
  H        -0.9557786918        1.6162455799       10.6881190429
  H        -0.9235735153        0.7218202826        8.3947855633
  H         0.6149005604       -1.2870197936        7.7473308337
  H         2.1161783160       -2.1942040254        9.5738474854
  H         2.0606566214       -1.3799742193       11.8082085450
  C        -2.2002953089        8.2429188371       15.0594587399
  C        -3.1472519108        8.9881053814       15.8210109484
  C        -4.3132015658        9.5174365344       15.1638553694
  C        -5.3699938089       10.2297145197       15.9084878065
  C        -6.4911291999       10.7783416666       15.3627613740
  C        -2.9841135365        9.3552387170       17.2174683640
  C        -2.3806692145       10.5693199557       17.5926565094
  C        -2.5168167909       11.0785170202       18.8933272682
  C        -3.2689182813       10.3505745000       19.8509142219
  C        -3.8459422779        9.0996854918       19.5284515752
  C        -3.6847406722        8.6698322340       18.2454306711
  H        -5.2465022419       10.3278460848       16.9962531944
  H        -7.3544169610       11.1519083349       15.8877725011
  H        -1.7018896422       11.0423622644       16.9724456774
  H        -1.9547707837       11.9515904855       19.1610279577
  H        -3.3039745704       10.7836181560       20.8578955684
  H        -4.4736331380        8.5241125847       20.2258243326
  H        -4.1410067061        7.6959238258       17.9834505500
  C        -2.2906640401        8.1981674974       13.5562166218
  C        -1.3402265704        7.5137456083       12.7914034776
  C        -0.1864336661        6.9627278423       13.5177174215
  C        -0.1435425034        6.9930926760       14.9199979940
  C        -1.1480880965        7.5474003789       15.6702296511
  C        -4.4710056739        9.3836115258       13.7373509614
  C        -3.4541264596        8.8797609112       12.9184015592
  C        -3.4590174007        9.2161805914       11.4561085630
  C        -2.7831918219       10.3598485398       10.9554659999
  C        -2.8540857705       10.8236203791        9.6353249550
  C        -3.6425765403       10.0484815783        8.7065853467
  C        -4.3486857325        8.8959736627        9.1572818384
  C        -4.3375639730        8.5745953465       10.5795109273
  H        -4.9755534182        7.8036428810       10.9390374763
  H        -5.0548007954        8.3624731344        8.5520495683
  H        -3.6941554735       10.3199476515        7.6319517843
  H        -2.3553834778       11.7198138839        9.3734923136
  H        -2.1544714314       11.0165466278       11.6173943866
  C        -5.6325480916       10.0687639468       13.1427584626
  C        -6.6477463572       10.6544877394       13.9388701086
  H        -7.4392635543       11.1674440528       13.5002313970
  H        -5.8047515506       10.0925487931       12.0951294733
  C        -1.2098653723        7.1779794265       17.1584377166
  C        -2.0761529349        6.2113812491       17.6260919337
  C        -2.1446563135        5.9221629491       18.9784549276
  C        -1.3561664623        6.6045419037       19.8281512050
  C        -0.4501801163        7.6425946771       19.4103950041
  C        -0.4467021206        7.9448929971       18.0455942570
  H         0.1822120816        8.8200267994       17.6945844169
  H         0.3288709761        8.0484441869       20.0974768818
  H        -1.2422609930        6.3177778202       20.8690700840
  H        -2.8205635160        5.1614357931       19.3486428513
  H        -2.5248978866        5.6062830585       16.8620958989
  C         1.0423411168        6.5583507814       15.5843726195
  C         2.0679673470        5.9462348667       14.8498885207
  C         1.9821011305        5.7846643708       13.4362627720
  C         0.8446463546        6.2443305570       12.7631424599
  H         0.7973043439        5.9355523149       11.7566679211
  H         2.6984544933        5.2254769324       12.8541901899
  H         2.9452253687        5.6229860880       15.3905974223
  H         1.0878720784        6.5679481349       16.6742105212
  C        -1.2455368047        7.2969789519       11.3326917978
  C        -2.0601316149        6.2789468629       10.7517567761
  C        -1.9546216146        5.8868066131        9.4044868196
  C        -1.1529035524        6.5920199798        8.4789055648
  C        -0.3088211691        7.5096053386        9.0697230530
  C        -0.4308216612        7.9702394543       10.4076811698
  H         0.2804682856        8.7046683175       10.7803015561
  H         0.3265861652        8.0293891277        8.2987081962
  H        -1.0575029269        6.3073910894        7.4219566324
  H        -2.7729087790        5.2610708834        9.0749028635
  H        -2.7943887097        5.8354168602       11.3967669661
