140

  C         1.2360191197        0.8404863842       14.8394119045
  C         2.3207997010        1.4683683474       15.5246429070
  C         3.4053503109        1.9806960760       14.7372662521
  C         4.5384769667        2.6098235236       15.4588320419
  C         5.4906095971        3.2884787784       14.8369018588
  C         2.2507457992        1.7986570789       17.0260375006
  C         1.5993226894        2.9232672930       17.5616460388
  C         1.5070675742        3.1785739965       18.9464469898
  C         2.2245151002        2.4101423847       19.8900485187
  C         2.9626326959        1.3513626798       19.4016562602
  C         2.9708422644        1.0808651930       17.9880923252
  H         4.6461159294        2.5179247540       16.4866964238
  H         6.3650335922        3.5716062273       15.3509971401
  H         1.0291077989        3.6135142029       16.9457654965
  H         1.1774981499        4.1621977586       19.2833011700
  H         2.1766817982        2.6888728791       20.9283423438
  H         3.5284179447        0.6950563164       19.9814908115
  H         3.6432077615        0.2645836143       17.6453910221
  C         1.2342696367        0.8419345428       13.3482136160
  C         0.1941912354        0.1255793919       12.7403215436
  C        -0.9177897219       -0.4008151020       13.4449185947
  C        -0.9800493128       -0.3693086184       14.8806907019
  C         0.1257262556        0.2021098149       15.5546546982
  C         3.2594991702        2.1910954913       13.3242798822
  C         2.1687351699        1.6019105098       12.6199811582
  C         2.0607253272        2.0238515977       11.2308489474
  C         1.2228408385        3.1050574742       10.8552921474
  C         1.3006331959        3.6093057633        9.5060297024
  C         2.3027045431        3.1601209712        8.6135160878
  C         3.0805769666        2.0898067690        9.0442748741
  C         2.9057372166        1.4980575195       10.2635191034
  H         3.4979440760        0.6416529130       10.4900794258
  H         3.8002803723        1.6429181999        8.4082584790
  H         2.4616885903        3.5578395071        7.6000633300
  H         0.5089547159        4.2028230690        9.0518140797
  H         0.4160139116        3.3565943933       11.4733648466
  C         4.2931706902        2.9565954083       12.7703518322
  C         5.3296142647        3.5592461303       13.4462904195
  H         6.0619479540        4.1632047432       12.9409170196
  H         4.3150273652        3.0711909261       11.7054503247
  C         0.2705536554       -0.2501327444       16.9910089184
  C         0.9709228276       -1.4227184029       17.3117208692
  C         0.9100665873       -1.9438622618       18.6130645623
  C         0.2092164307       -1.2500463766       19.5918836662
  C        -0.5021870635       -0.0267536401       19.2749009012
  C        -0.4218236952        0.5378421217       18.0049880817
  H        -0.9054306618        1.4942436612       17.6843048847
  H        -0.9031150478        0.5578204303       20.0806286353
  H         0.1662742897       -1.7703846412       20.5524314057
  H         1.2991484451       -2.8402332879       18.9331457524
  H         1.6984795265       -1.7758319821       16.6175888673
  C        -2.0025754547       -1.0064925892       15.5660229925
  C        -2.9570362373       -1.7642872924       14.9162837403
  C        -2.9517435813       -1.8134854184       13.5037125051
  C        -2.0052424020       -1.0836077096       12.8302144281
  H        -1.9974348867       -1.0589923276       11.7217799137
  H        -3.6533635139       -2.4673274998       12.9816098793
  H        -3.6365594090       -2.2788248154       15.5488191455
  H        -1.9943049146       -1.0831795043       16.6694178575
  C         0.2093812581       -0.2873009718       11.3054146871
  C         0.9013905568       -1.3462500080       10.8401068131
  C         0.8148341653       -1.7455379775        9.5183361353
  C        -0.0658097217       -1.0364741261        8.7051787039
  C        -0.9045887897        0.0400962078        9.1056641698
  C        -0.6686688251        0.3753301748       10.4199459536
  H        -1.2418707278        1.2725329021       10.7212133997
  H        -1.6876353086        0.5211983328        8.4914670134
  H         0.0568382877       -1.3720937930        7.6994624666
  H         1.3648460099       -2.5666514850        9.0756830120
  H         1.4967319038       -1.9436511398       11.4946558967
  C        -2.2686853695        8.1289195813       14.9724168461
  C        -3.3237946395        8.7856121879       15.5835250181
  C        -4.4813382173        9.3316382893       14.8507623511
  C        -5.5597033847       10.0044354337       15.5487188026
  C        -6.4745913531       10.7177293738       14.8596550137
  C        -3.3448102971        9.0935572181       17.0310829794
  C        -2.7033640038       10.2576834963       17.4912817952
  C        -2.7713122588       10.7863377594       18.7830975237
  C        -3.5410773222       10.1321135674       19.7943404397
  C        -4.2164822608        9.0017882677       19.3071942482
  C        -4.1658101315        8.4574063120       17.9833318821
  H        -5.6467730989       10.0008605916       16.5738221996
  H        -7.3301723371       11.1455986629       15.3510035546
  H        -2.0877127055       10.8721654369       16.7660589464
  H        -2.3522136775       11.8731299596       18.9392398794
  H        -3.7975514902       10.4292933014       20.8069535741
  H        -4.8810321453        8.4012495813       19.9475978132
  H        -4.7096052822        7.5422468089       17.8226078116
  C        -2.3192964111        8.0032429648       13.5053658711
  C        -1.2849528766        7.2379608346       12.8161759811
  C        -0.2355687276        6.7238236376       13.5778400584
  C        -0.2008674320        6.8051153870       15.0844129990
  C        -1.2264305193        7.4078662605       15.7861213901
  C        -4.4315615427        9.3030163689       13.3924482065
  C        -3.3404978056        8.7120688247       12.7598403192
  C        -3.0808643587        9.0395579535       11.3074681638
  C        -2.1170537183        9.9806553308       10.8810683803
  C        -1.9825395081       10.2773496809        9.4886386376
  C        -2.8679960487        9.7451685002        8.5513755745
  C        -3.8920481613        8.8855600103        8.9955937477
  C        -3.8923202456        8.4405681288       10.3235796144
  H        -4.5661958817        7.6165383810       10.6469244750
  H        -4.6499234555        8.5456721835        8.3212239779
  H        -2.7774501704        9.9346017495        7.4884009603
  H        -1.2283941179       11.0731295507        9.2634391307
  H        -1.4520268135       10.5267058534       11.5163526492
  C        -5.4352650851       10.1045991732       12.7364794796
  C        -6.3873963034       10.8372283815       13.4214611365
  H        -7.1062150748       11.5217640911       12.8546405701
  H        -5.5681297369       10.1030476728       11.6930360525
  C        -1.3659459654        7.1000517476       17.2028637193
  C        -2.1929408768        5.9063420672       17.4035629923
  C        -2.2544739091        5.3157911282       18.6381255728
  C        -1.6363485465        5.8622375980       19.8276321997
  C        -0.9458954761        7.0600718624       19.5686741353
  C        -0.7112883495        7.5766305426       18.2728109335
  H        -0.1587941649        8.5244892744       18.1895445106
  H        -0.4045178594        7.5594302073       20.4063161845
  H        -1.8251131816        5.4676939296       20.8181424382
  H        -3.0450992018        4.5129052745       18.7674773958
  H        -2.6444962116        5.5511186005       16.5012394318
  C         0.8865025092        6.0686787413       15.6926383990
  C         1.8326159675        5.4006006666       14.9963555564
  C         1.7400106105        5.3228783060       13.5108963421
  C         0.7673433090        5.9580526967       12.8705280296
  H         0.7425013139        5.8557312431       11.8035021077
  H         2.4661244597        4.6703431688       13.0349642209
  H         2.6589498077        4.9456453826       15.5049040958
  H         0.8369403876        6.0334045163       16.7754415302
  C        -1.3000203481        6.8804801366       11.4335437979
  C        -2.0330890976        5.7928392589       11.0113852166
  C        -2.0401529087        5.3489346869        9.6735066217
  C        -1.2519405409        6.0344503781        8.7455649175
  C        -0.4775856167        7.1292883943        9.1067180281
  C        -0.5091887953        7.5020077438       10.4644814397
  H         0.1505970141        8.2858283593       10.7983761564
  H         0.0072085521        7.6542601097        8.3294131937
  H        -1.1672987748        5.6200946431        7.7208599125
  H        -2.6106889097        4.5314278267        9.2512202554
  H        -2.4482839856        5.2056183896       11.8033488077
