140

  C         4.2576112784       -0.2114788802       14.2613022729
  C         5.2531344394        0.5242145880       15.0373476999
  C         6.3522710829        1.0977420766       14.4008545415
  C         7.4334385307        1.7235306164       15.1588704253
  C         8.5490331770        2.0065505812       14.4519876315
  C         5.0570428383        0.7425189893       16.5227745174
  C         4.3163208002        1.8598771638       16.9659294854
  C         4.4066998580        2.2423340479       18.3203505668
  C         5.2356146306        1.5265358825       19.1658632453
  C         5.9035578528        0.3743599392       18.8086017266
  C         5.7543646085       -0.0283969330       17.4621319165
  H         7.2993370790        1.8320498968       16.2641147707
  H         9.3500786188        2.4307008156       15.0049434325
  H         3.8373199003        2.4987532360       16.2512894678
  H         3.6666241419        2.9648434293       18.6847649544
  H         5.3866029188        1.8286847563       20.2173018559
  H         6.4155555592       -0.2799426740       19.5228102227
  H         6.3174377055       -0.9616654539       17.1436371642
  C         4.3551631629       -0.1868768561       12.7682759661
  C         3.2782025419       -0.8501272610       12.0153648953
  C         2.1147418280       -1.3600286777       12.6023698769
  C         2.1527313767       -1.4770155383       14.0477191057
  C         3.2335050653       -0.9499935038       14.8580291616
  C         6.4721064803        0.9555362802       12.9206771204
  C         5.4717720432        0.4243876547       12.1416074241
  C         5.4046582105        0.7360913653       10.6527676728
  C         4.4275913333        1.6733100266       10.2555287096
  C         4.1905913444        1.9128659818        8.8518670548
  C         5.0322562277        1.3114685401        7.9170716001
  C         5.9213701023        0.3235300208        8.2884438746
  C         6.0841069318       -0.0399082070        9.6621623204
  H         6.6779171903       -0.8773499728        9.9558310905
  H         6.4264858955       -0.2623976506        7.5398498420
  H         4.9035581376        1.5481974166        6.8566435490
  H         3.5564177153        2.7600890322        8.4770765656
  H         3.9664733215        2.1450545558       11.0715458498
  C         7.6960771389        1.2789746700       12.2860033082
  C         8.7127159933        1.7475644568       13.0086778257
  H         9.6716540661        2.0383599234       12.5715142757
  H         7.7300195299        1.0869898596       11.2188852664
  C         3.1774926007       -1.3261072116       16.2939388074
  C         4.0210622143       -2.3913454824       16.6271888426
  C         4.0446159054       -2.8689225152       17.9371402851
  C         3.2694521832       -2.1723488566       18.8455676725
  C         2.3940509304       -1.1345141970       18.5611700940
  C         2.3248853944       -0.6714022832       17.2173346888
  H         1.7655350930        0.1870940028       16.8710178491
  H         1.7304718954       -0.7549773549       19.3188643818
  H         3.1525851869       -2.4695449392       19.8884569594
  H         4.7791785680       -3.5463929938       18.3151038910
  H         4.7738134860       -2.7716021984       15.9234472078
  C         1.1017559831       -2.1364751115       14.6965090039
  C         0.0796998873       -2.8491441745       14.0110557107
  C        -0.0447500669       -2.6363707992       12.5835813925
  C         0.9807964123       -1.9057759220       11.9245972008
  H         0.9241402772       -1.7299529190       10.8822886794
  H        -0.9018875957       -3.0911852668       12.0614353340
  H        -0.7576072550       -3.1849643426       14.6369260814
  H         1.0653528770       -2.2358969279       15.7899126022
  C         3.4004168159       -1.3877725458       10.5981438605
  C         4.1117018641       -2.5618039027       10.4202150478
  C         4.0638038135       -3.2022822185        9.2113318375
  C         3.3986604812       -2.5773110823        8.1243447456
  C         2.5975129906       -1.4852315846        8.3114904352
  C         2.5790776851       -0.8713038416        9.5960812579
  H         1.9849384753        0.0610707595        9.7291783488
  H         1.9145896459       -1.1423204791        7.5919016559
  H         3.3669940529       -3.0950684753        7.1562875120
  H         4.5634622260       -4.1465926917        9.0687039488
  H         4.5692845651       -3.0522650545       11.2880840898
  C         0.4357250243        6.8557161947       14.1530549637
  C        -0.6090362410        7.5934979165       14.8146132402
  C        -1.6864130272        8.0831753861       14.0637575339
  C        -2.8286773892        8.7513872216       14.7165574538
  C        -3.7804566714        9.4252958854       13.9726136035
  C        -0.5464866496        7.9418572581       16.2466654110
  C         0.1710700158        9.0825917425       16.6761347349
  C         0.2267091397        9.4532172396       18.0018773847
  C        -0.5906257597        8.7512487383       18.9713427357
  C        -1.3409169951        7.6542836574       18.5597415173
  C        -1.3405415276        7.2957039161       17.1905717595
  H        -3.1190524052        8.5133833780       15.7446787082
  H        -4.6647314500        9.9207084389       14.3833474560
  H         0.7138021675        9.7225868843       15.9775515669
  H         0.7555585801       10.3529789662       18.2765751353
  H        -0.5317581896        8.9721298716       20.0370751424
  H        -1.9355965925        7.1141298058       19.3041863035
  H        -1.8302397989        6.3902154559       16.8951519735
  C         0.5193785083        6.8384492359       12.6112380632
  C         1.5166205705        6.0469439822       11.9426403855
  C         2.5463023774        5.5183947281       12.7338891955
  C         2.5240906266        5.5386023021       14.1994647990
  C         1.4786762717        6.2600210116       14.8290476440
  C        -1.5805894886        8.1816147900       12.6571211130
  C        -0.4805744563        7.6707908095       12.0026310718
  C        -0.1981363174        8.0833610947       10.6006342272
  C         0.6948701657        9.1285741060       10.3861933873
  C         0.9821084222        9.4869621009        9.0946752288
  C         0.3492363329        8.8879343445        7.9822545863
  C        -0.4760330226        7.8260996835        8.1839489086
  C        -0.7918556904        7.3944558982        9.5223864339
  H        -1.5480826581        6.6233474879        9.7300392660
  H        -1.0467990075        7.3988906691        7.3440139928
  H         0.5584147855        9.2331501257        7.0180796115
  H         1.6917809980       10.2612400277        8.8318553944
  H         1.2279908562        9.6098864036       11.2297584272
  C        -2.5768194007        8.9411581632       11.9788466069
  C        -3.5945786713        9.5704514859       12.5773430597
  H        -4.2985672956       10.1046314970       11.9709694823
  H        -2.2977752237        9.0617736900       10.9098555222
  C         1.5316889939        6.0161578424       16.3384936871
  C         0.8541246827        4.8567621534       16.7760766979
  C         0.8879569874        4.3723656059       18.1119779544
  C         1.7182714876        5.0322613441       18.9986822712
  C         2.4136354335        6.1381039812       18.5595096340
  C         2.3410229779        6.6844781629       17.2905213674
  H         2.8132373350        7.5961263277       16.9823329474
  H         3.0568024078        6.6521634967       19.2921396423
  H         1.8818428440        4.6703336966       20.0036325482
  H         0.3391536934        3.4633862034       18.3339679071
  H         0.2206349225        4.3034228571       16.0158121148
  C         3.6169693556        5.0141113614       14.9398112682
  C         4.6435695527        4.3916280310       14.2727937829
  C         4.7097284884        4.3761178385       12.8862096042
  C         3.6692509309        4.8534085755       12.1164109250
  H         3.6382895852        4.8478333474       11.0147753131
  H         5.5175194389        3.8864237060       12.3763209144
  H         5.4785801904        3.8729645302       14.7325545414
  H         3.5803384201        4.9994564375       16.0177108458
  C         1.5346235541        5.6112171125       10.4799485730
  C         0.7760141077        4.5845979924        9.9509974931
  C         0.9481266613        4.1987104354        8.6250703002
  C         1.7297328519        4.9367615143        7.7328295402
  C         2.4259406098        6.0737666792        8.2607394167
  C         2.2738701760        6.3957898541        9.6080107307
  H         2.8953939083        7.1573117339       10.0725450251
  H         2.8542897382        6.8155448215        7.6048599824
  H         1.7710914410        4.5890359029        6.6986724116
  H         0.3954435176        3.3103504015        8.2457908100
  H         0.0960170093        4.0713597866       10.6180842362
