140

  C        12.3009403442        1.0224811949        1.6637727130
  C        13.3772681481        1.6640964052        2.3498922993
  C        14.4676283884        2.1964659626        1.6162128593
  C        15.5601323013        2.8633007406        2.2956252378
  C        16.6055193189        3.5179191950        1.6992080921
  C        13.3059136003        2.0081662233        3.7778209525
  C        12.6333699566        3.1587793329        4.1105745831
  C        12.5712399440        3.7520887672        5.3990437631
  C        13.3429453589        3.1712099318        6.3573713904
  C        14.0869096826        2.0188587069        6.0697567221
  C        14.0015432057        1.3842251994        4.8421420574
  H        15.5550419429        2.9325671521        3.3442687017
  H        17.4669116095        3.9931755251        2.1491074919
  H        12.1579616605        3.7168328874        3.2588963575
  H        11.8833026610        4.5890731553        5.4763823380
  H        13.4192183567        3.5765125449        7.3823603647
  H        14.7960996253        1.6264214635        6.8271918385
  H        14.5624449510        0.4616278662        4.7348029344
  C        12.3313088815        0.9941341204        0.1536212993
  C        11.2800154500        0.3398654251       -0.5152921680
  C        10.1328389892       -0.0858235175        0.1270065788
  C        10.0168755597        0.0380585470        1.5957220676
  C        11.1600049946        0.4342897038        2.3319714993
  C        14.4469133303        2.3519536711        0.1470097027
  C        13.3771901346        1.7384551493       -0.5635445940
  C        13.3250590100        2.1909142905       -2.0243736630
  C        12.4657406928        3.2860685787       -2.3920671343
  C        12.4177109724        3.8054405815       -3.6981849974
  C        13.2831474100        3.2483749562       -4.6325999476
  C        14.2079263683        2.2552346636       -4.3152480071
  C        14.2185239362        1.7203504300       -2.9871587579
  H        14.8041043879        0.8168162132       -2.8251659092
  H        14.8568174241        1.9231615704       -5.0300293109
  H        13.2624867245        3.5334086826       -5.6901395739
  H        11.6382278713        4.5191856271       -3.9427104504
  H        11.8779788909        3.8098787536       -1.6720666277
  C        15.4617999652        3.1737473076       -0.4382554193
  C        16.5185042086        3.6375699710        0.3011488224
  H        17.2965210860        4.1522604480       -0.2728131687
  H        15.5543839271        3.2490183833       -1.5100736529
  C        11.2291745298        0.0518559467        3.7666240608
  C        12.0094680480       -1.0565618027        4.1544547350
  C        11.9076667929       -1.6081644435        5.4394832298
  C        11.2180826863       -0.9597434738        6.4164492532
  C        10.4764462491        0.1924267164        6.1063075448
  C        10.5569117095        0.6939651024        4.8083198947
  H         9.9093523174        1.5110258492        4.6815219441
  H         9.7817680843        0.6770094102        6.8340128082
  H        11.0771505334       -1.3848914885        7.4237237485
  H        12.4361232726       -2.5610090932        5.6527341764
  H        12.5378141271       -1.6387861056        3.4306860481
  C         8.8389463876       -0.4156220652        2.2322111290
  C         7.7792705914       -0.9127248995        1.5189693955
  C         7.8863155218       -1.0951902821        0.0975646173
  C         9.0121229955       -0.6411891885       -0.5789227259
  H         9.0844216783       -0.7066782909       -1.7171750522
  H         7.0317039786       -1.4574390148       -0.4685747143
  H         6.8347576605       -1.1732624862        1.9559299029
  H         8.8849680608       -0.5501576219        3.2727415782
  C        11.3228055381        0.1361914725       -1.9581934296
  C        12.1200554669       -0.9210997957       -2.4910612164
  C        12.1484455507       -1.2511129074       -3.8505477000
  C        11.1717966832       -0.7024509363       -4.6685567836
  C        10.3931014970        0.3415072265       -4.2232337629
  C        10.4640570397        0.7706218615       -2.9027085007
  H         9.8261863499        1.5494043378       -2.4638571318
  H         9.6912535522        0.8028789590       -4.8615551113
  H        10.9864478035       -0.9880416870       -5.7279618939
  H        12.8095039731       -1.9794742927       -4.2227245733
  H        12.8479088306       -1.4132805251       -1.7778148247
  C         8.7178898464        8.2230424898        1.3501965055
  C         7.6816298135        8.9544241715        2.0998685263
  C         6.6753162259        9.7152419854        1.4110452722
  C         5.6768243872       10.4294477083        2.0956892490
  C         4.6694338616       11.0938491511        1.4186177757
  C         7.9338473671        9.3603694730        3.5185930415
  C         8.5473885910       10.5971631179        3.6468839539
  C         8.7055911783       11.2509459626        4.8927874382
  C         8.3545492970       10.5820544606        6.0668531189
  C         7.6880681916        9.3378388654        5.9658246177
  C         7.3903601042        8.8161554009        4.7015183214
  H         5.5646932913       10.3885436791        3.1326749497
  H         3.7335840155       11.4988914733        1.9197120859
  H         8.9898297590       11.1085825120        2.7842631494
  H         9.0478178936       12.2579293732        4.8386030667
  H         8.5071611221       11.0342614901        7.0310024346
  H         7.4155032908        8.7779605009        6.8477202984
  H         6.7864185516        7.8805854744        4.6301344391
  C         8.7336280368        8.3050954127       -0.1220594468
  C         9.7391224561        7.6040822592       -0.8519676596
  C        10.8534880734        7.0074882647       -0.1700742630
  C        10.8934075999        7.0027975104        1.2809883256
  C         9.7917794006        7.5023165916        2.0444536355
  C         6.7026570252        9.7462898876       -0.0318359813
  C         7.7267896690        9.1061805782       -0.7255904632
  C         7.7136417265        9.5022525532       -2.1898942841
  C         8.5197292438       10.6254060268       -2.5715448277
  C         8.4824390636       11.0401764031       -3.9170417159
  C         7.6864809863       10.3860825358       -4.8592050444
  C         6.8723828114        9.3661174562       -4.4434867438
  C         6.8511277770        8.8778285076       -3.1583435440
  H         6.2263332141        8.0584689966       -2.8255191019
  H         6.2673289884        8.9090421141       -5.2612623234
  H         7.7409655042       10.6778611470       -5.8667528783
  H         9.0092827583       11.9938179692       -4.0950655915
  H         9.1650719900       11.0659005663       -1.8346207085
  C         5.6916057042       10.5247602639       -0.6333235928
  C         4.6917748998       11.1533983217       -0.0022073084
  H         4.0649645261       11.7369666017       -0.6514204253
  H         5.7213297473       10.5707014291       -1.7013739276
  C         9.7869660628        7.1823919462        3.5264278208
  C         8.9022370359        6.1055953084        3.9147978459
  C         8.7936252782        5.7544034736        5.2549102799
  C         9.6035735451        6.3545657429        6.2444292895
  C        10.4642499148        7.3729918591        5.8446973042
  C        10.5169409370        7.8248523234        4.4853379175
  H        11.1330558516        8.6331123689        4.1432665977
  H        11.1063428323        7.7811372679        6.6290781561
  H         9.6277926626        6.0848457235        7.2996990561
  H         8.2574893623        4.8754975192        5.5576523252
  H         8.3671299537        5.5970260721        3.0791883661
  C        11.9947256835        6.3429435503        1.9611914212
  C        13.0726624580        5.8624200575        1.2558674292
  C        13.0579933370        5.8547266816       -0.1721894815
  C        11.9713216584        6.3189346266       -0.8547562348
  H        12.0040563135        6.2993735826       -1.9842143819
  H        13.8876758354        5.4652920330       -0.7222254455
  H        13.9647289974        5.5661778905        1.8468498189
  H        12.0557412070        6.3805404406        3.0505475171
  C         9.6309983185        7.3807649535       -2.3142291005
  C         8.9575280001        6.2161029153       -2.7464686206
  C         8.9362752942        5.9331493364       -4.1055242448
  C         9.6028235221        6.6881007226       -5.1227043475
  C        10.2932545836        7.8603150135       -4.7406987431
  C        10.3173199555        8.1216760565       -3.3131155500
  H        11.0131144936        8.9427711049       -3.1216800708
  H        10.7908240383        8.4860749136       -5.4775443157
  H         9.4438187801        6.3913800105       -6.1562356743
  H         8.2711450171        5.0987367801       -4.3282799626
  H         8.3545518055        5.5917318983       -2.0791139941
