140

  C         3.4219586420       -0.0246059789       14.2450191460
  C         4.4597324007        0.7120482412       15.0384286541
  C         5.5417874487        1.3492804830       14.3683629278
  C         6.6301066694        1.9580814890       15.0765560103
  C         7.6336222518        2.6505156770       14.4118397535
  C         4.3140113937        1.0106684148       16.4780552678
  C         3.3771326226        1.9704838554       16.9111914859
  C         3.4152111079        2.5089934414       18.1865507964
  C         4.4181437988        2.0762840213       19.0795876940
  C         5.2109945122        0.9792182023       18.7974664227
  C         5.1931394811        0.4673879673       17.4364089201
  H         6.6668224970        1.7595529066       16.1549482203
  H         8.5091192312        3.0852405907       14.9104994895
  H         2.8344788975        2.3484217888       16.0654225912
  H         2.8507290447        3.3321813774       18.5568913276
  H         4.4685415262        2.5205794677       20.0837631903
  H         6.0353191435        0.6163544151       19.4155209618
  H         5.7343105096       -0.4942233613       17.1007247884
  C         3.4768159102        0.1505066536       12.7925311149
  C         2.5147668728       -0.4942923424       11.9440879986
  C         1.4161674605       -1.2801773129       12.5725975716
  C         1.3306997810       -1.3204658280       14.0663824853
  C         2.3851279808       -0.8400227186       14.8546517523
  C         5.6186587421        1.2955440989       12.9104684399
  C         4.5122675390        0.8536215922       12.1558253357
  C         4.4079160813        1.2293882611       10.7486502469
  C         3.3339558705        2.0287228230       10.2433873745
  C         3.3666161798        2.4314336600        8.8985147122
  C         4.1969537800        1.9622960314        7.9165452784
  C         5.1973011722        1.0917308723        8.4006098206
  C         5.4100491658        0.8240722952        9.7870757499
  H         6.1796901604        0.0423169271        9.9760731658
  H         5.9648368408        0.7544388868        7.7294545863
  H         3.9997547737        2.2327342401        6.8956297102
  H         2.5365342448        3.1020654349        8.7286693449
  H         2.5485826669        2.4210238646       10.8584587590
  C         6.6330486576        2.0496339867       12.2793997088
  C         7.5306207370        2.8172531844       13.0276900320
  H         8.2677580945        3.3894721341       12.4447557870
  H         6.6389855601        2.1149740487       11.1952351065
  C         2.4068707259       -1.1226538581       16.2548163892
  C         3.0631942822       -2.2480500722       16.7074082849
  C         3.0941166244       -2.5767333481       18.0707308388
  C         2.4326294245       -1.8065530879       19.0104724905
  C         1.7280464187       -0.7135616238       18.5477362132
  C         1.6335914887       -0.4057377840       17.2255557163
  H         0.9945021330        0.4493048428       16.9282721360
  H         1.2034913743       -0.1773548603       19.2733940762
  H         2.3763244099       -2.1220459401       20.0702043100
  H         3.6503597444       -3.5034518945       18.3822458612
  H         3.6448478293       -2.8676494473       16.0356069061
  C         0.1402331639       -1.8993962234       14.6681931024
  C        -0.7024930640       -2.5822629789       13.8128478653
  C        -0.5258587533       -2.7794457138       12.3999761214
  C         0.4909308309       -2.0870481546       11.7948385512
  H         0.6778312225       -2.0548283539       10.7121073805
  H        -1.1669623824       -3.4250410218       11.8789289496
  H        -1.6100314986       -3.1094712399       14.1410503494
  H        -0.0478613955       -1.9695697744       15.7719754612
  C         2.6903692204       -0.8753016158       10.5199204926
  C         3.7125154213       -1.7791551758       10.0902889570
  C         3.8371117474       -2.1864160426        8.7690258014
  C         3.0106580127       -1.7190288720        7.7665128319
  C         2.0034725264       -0.8416712852        8.1703307627
  C         1.8751695850       -0.3954849895        9.4984379261
  H         1.0392891678        0.2965150546        9.7419566280
  H         1.3533987325       -0.4789608027        7.4697220617
  H         3.1275026763       -2.0968432170        6.7275733750
  H         4.6113488830       -2.9852984780        8.5696438574
  H         4.3188351817       -2.1652091617       10.9010770140
  C        -0.1564892158        7.0564826198       14.1354850553
  C        -1.2141316075        7.8745496649       14.8231499822
  C        -2.2490385737        8.4197358820       14.0055497529
  C        -3.3898492470        9.1150738754       14.6020111257
  C        -4.4145607752        9.7574900965       13.9397710279
  C        -1.0616216592        8.2410292520       16.2248915128
  C        -0.4603019408        9.4206485884       16.6613514335
  C        -0.4631601066        9.8231391869       18.0403378634
  C        -0.9284813502        8.9793204317       19.0471966002
  C        -1.5346220725        7.7708796065       18.5563371978
  C        -1.7122598658        7.4743324322       17.2065171722
  H        -3.4985503509        9.0484164288       15.6800324791
  H        -5.1969107681       10.2161806539       14.5131717722
  H         0.1187516795       10.0516477332       15.9872123209
  H        -0.0678307747       10.8251648831       18.3002256026
  H        -0.9390335003        9.1939891557       20.1237844340
  H        -2.0150549713        7.1175821593       19.2732084471
  H        -2.3037681308        6.6286404738       16.8899615475
  C        -0.2034908643        6.9885378906       12.5855029474
  C         0.8663332872        6.3776209260       11.9760732453
  C         1.9538303153        5.8580949254       12.7531020707
  C         1.9124201990        5.8605643475       14.1930452918
  C         0.8711276383        6.4317984920       14.8675148006
  C        -2.1861794024        8.3568814849       12.5598461743
  C        -1.1491723117        7.7571595659       11.8647779561
  C        -0.9016358452        8.1942325468       10.4485443872
  C         0.1314113752        9.1066189997       10.1216159825
  C         0.2511462786        9.5858649899        8.7813184779
  C        -0.6258005790        9.1495886547        7.7668315938
  C        -1.6001924004        8.2136339289        8.1104484308
  C        -1.7724134184        7.8069770019        9.4342427498
  H        -2.4929005170        7.0011157647        9.6649836717
  H        -2.2558428154        7.7740657407        7.3314937043
  H        -0.3760451642        9.5379307308        6.7185314819
  H         0.9515368557       10.3864186108        8.5863756879
  H         0.7518553545        9.4777523845       10.9301607427
  C        -3.2489130971        9.0193788350       11.9217503905
  C        -4.3043358191        9.6519879306       12.5712814984
  H        -5.0579373501       10.1621370125       11.9826200657
  H        -3.2620840743        8.8729446859       10.8424577615
  C         0.7140411896        6.0693977422       16.3427625578
  C        -0.1214136675        5.0031390229       16.7430380349
  C         0.0150053714        4.4131309763       17.9938556615
  C         0.9135336066        4.9254319101       18.9018051187
  C         1.5918521359        6.1146305159       18.6109567619
  C         1.5367218826        6.6488686339       17.3028186652
  H         2.0806234117        7.5199033938       16.9908003564
  H         2.1686004482        6.5741713262       19.4191459142
  H         0.9027371043        4.5338699980       19.9210772564
  H        -0.6141774322        3.5772822512       18.2145947763
  H        -0.8935787847        4.7036619052       16.0345296178
  C         2.9650562536        5.2025135408       14.9262517262
  C         4.0680126571        4.6584920670       14.2317602094
  C         4.1588395580        4.5449223800       12.7790786236
  C         3.1166747514        5.1681995350       12.1319974804
  H         3.1631986021        5.2555578693       11.0456735710
  H         5.0700688080        4.1347080301       12.3360010629
  H         4.7868408714        4.1274972081       14.8503988724
  H         2.8795989078        5.0209142786       16.0423346499
  C         0.9288416438        6.0623507091       10.5192810940
  C         0.0463616633        5.0727378543       10.0369018119
  C         0.0814901560        4.6165888926        8.7293958687
  C         1.0562846990        5.1188530391        7.8766987323
  C         1.9692414343        6.1032799220        8.3054981330
  C         1.8920782548        6.6469689828        9.6286111730
  H         2.4745520333        7.4886199647        9.9396709461
  H         2.6687753748        6.5499697522        7.6116678740
  H         1.1633712493        4.7138354691        6.8579427979
  H        -0.5656499608        3.8305631339        8.3347205175
  H        -0.7512553552        4.6704942840       10.6569877321
