140

  C         2.4213142424        0.4943142952       14.9799001661
  C         3.4044273345        1.2572498635       15.6555057967
  C         4.5669674135        1.7480802931       14.9880934919
  C         5.6626857993        2.3233806430       15.6609051799
  C         6.7542778405        2.9209728445       15.0197330521
  C         3.3610534737        1.6809815594       17.0572238429
  C         2.5385967413        2.8162653470       17.3708317087
  C         2.6828940235        3.2932842617       18.6836326359
  C         3.4670265050        2.6834417336       19.6651321550
  C         4.2628168695        1.5807960879       19.3183640015
  C         4.1640049673        1.1458806934       18.0164182518
  H         5.6242242721        2.3593736649       16.7737100860
  H         7.6380980310        3.4337434565       15.5085458581
  H         1.7810319775        3.1552666179       16.6621579618
  H         1.9950308194        4.0707270767       19.0305165525
  H         3.4347511379        3.1680655441       20.6388012259
  H         4.9808385718        1.0273114386       19.9363790112
  H         4.8126334500        0.2674420233       17.7873204485
  C         2.4543387961        0.3995890389       13.4874300219
  C         1.4410668164       -0.3446559946       12.8399956358
  C         0.2951884262       -0.8850432371       13.4777967750
  C         0.2526593912       -0.8254411568       14.9737745193
  C         1.3363602237       -0.2203161696       15.6774959203
  C         4.5591594784        1.7431872975       13.5430714357
  C         3.5304457136        1.0830682258       12.7924439574
  C         3.5521571497        1.2940212724       11.2866020333
  C         3.0143521639        2.5008093533       10.8914029447
  C         3.1552095252        2.9700903748        9.6244604783
  C         3.7900937871        2.2038078664        8.5784401663
  C         4.4350133711        1.0257843929        9.0294112204
  C         4.3709449109        0.6384962251       10.3886966277
  H         4.9793942451       -0.2268518469       10.7559750216
  H         5.0289172453        0.4479564723        8.3980593660
  H         3.8074003443        2.4979375377        7.5311396347
  H         2.7835769739        3.9575201702        9.3186697355
  H         2.5470667206        3.0113580767       11.7145947153
  C         5.6487966480        2.4517983744       12.8864397221
  C         6.7109875076        2.9995014405       13.5852458178
  H         7.5727757735        3.4629384956       13.0269274448
  H         5.6914371501        2.4682119943       11.8184168451
  C         1.4688888372       -0.6320250157       17.1161792438
  C         2.3886376061       -1.6200096224       17.5547986719
  C         2.3664767560       -2.0824357147       18.8482245819
  C         1.5146789711       -1.5997424801       19.7952393569
  C         0.4798894987       -0.7949207542       19.4077997492
  C         0.5992097313       -0.2523970871       18.0983597099
  H        -0.0881761012        0.6161429030       17.9039839898
  H        -0.4229991864       -0.5124959827       19.9914958342
  H         1.5265549526       -2.0546214341       20.7528788322
  H         3.0104930184       -2.8497230954       19.1163526026
  H         3.0257926078       -2.0677805735       16.8111834822
  C        -0.7725968518       -1.5411185452       15.6537625217
  C        -1.7019254003       -2.2285831169       14.9327334559
  C        -1.8135898308       -2.1788066693       13.4940333401
  C        -0.8156917154       -1.4456952602       12.8213784710
  H        -0.7612382804       -1.4602173682       11.7593862405
  H        -2.6776662912       -2.6871287171       12.9981551803
  H        -2.4798364111       -2.7389485105       15.4450320958
  H        -0.9059472253       -1.4902201527       16.7222441811
  C         1.4508992570       -0.5131381823       11.3654205347
  C         2.1846199559       -1.6050875649       10.7032969727
  C         2.0580286782       -1.8852860861        9.3244638403
  C         1.2179543796       -0.9964454929        8.5368646444
  C         0.5449984675        0.0069954982        9.1813941297
  C         0.7645959340        0.3727434089       10.5161040329
  H         0.1929964696        1.1170669739       10.9800916189
  H        -0.0310758567        0.6546174031        8.5501197466
  H         1.0857976508       -1.2115453072        7.4519163814
  H         2.7288983407       -2.6722265852        8.8991969563
  H         2.6997267069       -2.3203274779       11.3154637425
  C        -0.9976065400        7.6301154278       14.8360796202
  C        -1.9682243691        8.3624931123       15.4849453921
  C        -3.0435818730        8.8828099042       14.7302769502
  C        -4.0789033698        9.6133025407       15.4026505492
  C        -5.1158858236       10.1722493574       14.7281136543
  C        -1.8869873317        8.7116576547       16.9195333076
  C        -0.9503963878        9.6817308988       17.4366938081
  C        -1.1151988722       10.1626890694       18.7577364191
  C        -2.1289063339        9.6262632914       19.5615791342
  C        -3.0516126675        8.6515058422       19.1054680576
  C        -2.9185460364        8.1747462078       17.7469053452
  H        -4.0982720729        9.7300062135       16.4727657769
  H        -5.9250579537       10.6807479759       15.2322280828
  H        -0.1972416404       10.0086388066       16.7080697398
  H        -0.4220267803       10.8371696159       19.2479529992
  H        -2.1512532521        9.8433027455       20.6429082470
  H        -3.9618057413        8.4308465468       19.7164295529
  H        -3.5925650810        7.4838192814       17.2843627960
  C        -0.9457692985        7.6069594717       13.3590378981
  C         0.0888700186        6.9315845857       12.6461709188
  C         1.2087493844        6.4479437917       13.4184348491
  C         1.0774007196        6.3787080635       14.8055575067
  C        -0.0631651219        6.8101234851       15.5171463670
  C        -3.0787229315        8.8170317974       13.2716955109
  C        -2.0404188302        8.1186652306       12.5945884774
  C        -2.0162144782        8.4094303783       11.1308868594
  C        -1.5241986803        9.6798894868       10.9059429288
  C        -1.4899568277       10.2814504339        9.6766751899
  C        -2.0802536805        9.6585051205        8.5753458959
  C        -2.6529305960        8.4179854602        8.7579523985
  C        -2.6942617338        7.8079157846       10.0451774592
  H        -3.0439655090        6.7869448011       10.1840005832
  H        -3.1025902511        7.9110146608        7.8729958401
  H        -1.8854353546       10.1374463501        7.6010461451
  H        -1.0853397761       11.3016589179        9.6334675505
  H        -1.0081687567       10.0877482829       11.7394532778
  C        -4.2325087572        9.3163377445       12.5952017115
  C        -5.1902619573       10.0261307058       13.2509661475
  H        -6.0838733094       10.2299734170       12.6813050947
  H        -4.2999502152        9.1916425259       11.5508960495
  C        -0.1640195320        6.5023038852       17.0401961183
  C        -0.9888009759        5.4665384142       17.4615781581
  C        -1.0322208589        5.0787344588       18.8016813705
  C        -0.1582549008        5.6535058788       19.6845489546
  C         0.7289079855        6.6394259285       19.2300693270
  C         0.6693138774        7.1037738466       17.9162811748
  H         1.2777516323        7.9517916389       17.5887060611
  H         1.3109687242        7.1297648918       19.9630890354
  H        -0.2176337050        5.4190789926       20.7641361305
  H        -1.6968029866        4.2616430554       19.0898778785
  H        -1.7168662546        4.9323648916       16.8529351606
  C         2.1831068389        5.6776978043       15.5088268698
  C         3.3286839123        5.2451362466       14.9112438587
  C         3.4509415934        5.4073898757       13.4790494962
  C         2.4189136913        5.9673416282       12.7684985482
  H         2.4647668775        6.0102931543       11.6439610577
  H         4.3460565479        4.9405163627       12.9949039776
  H         4.0242936811        4.5642707806       15.4718025161
  H         1.9669574101        5.4053732531       16.5349009126
  C        -0.0209131628        6.4529399674       11.2512046408
  C        -0.6832693613        5.2450919415       10.9387673319
  C        -0.7955155183        4.7927057416        9.6523684392
  C        -0.2034045594        5.4865907353        8.5928714948
  C         0.6552814859        6.5566309501        8.8962652101
  C         0.6616666904        7.0883570334       10.1708768060
  H         1.3176588612        7.9636426438       10.3568389835
  H         1.2794301662        7.0705581889        8.1671819037
  H        -0.2868461268        5.1876707372        7.5205856603
  H        -1.3369310201        3.8915722949        9.4550556258
  H        -1.1086188485        4.6987953460       11.7678746452
