140

  C         4.3168647989       -1.2075096150       13.9940272378
  C         5.4053836277       -0.5524889631       14.6510549489
  C         6.3770484721        0.1441374848       13.8559647016
  C         7.3961541272        0.8419395496       14.5488827939
  C         8.4836531698        1.4050497547       13.9037193543
  C         5.3341560467       -0.2437072166       16.0796310163
  C         4.4381067978        0.7353552955       16.5013327581
  C         4.6259983870        1.2500013048       17.8101695155
  C         5.5267099021        0.6705099107       18.7128621725
  C         6.4477572886       -0.2862427954       18.2575850087
  C         6.3624250258       -0.6767197986       16.8896420242
  H         7.3576473903        0.8241692387       15.6206904928
  H         9.2081956859        1.9446775238       14.4467065627
  H         3.7851753413        1.2001238214       15.7624992093
  H         4.1137488030        2.1712105262       18.1085689810
  H         5.7006888957        1.1297461956       19.7294376675
  H         7.2191967933       -0.7051747366       18.8279848267
  H         7.1274363247       -1.3071335289       16.5615826892
  C         4.2020288876       -1.0986079969       12.4855921904
  C         3.1778900752       -1.8091567846       11.7697869741
  C         2.0712011566       -2.3037000818       12.5646628930
  C         2.0679784897       -2.2839885553       13.9929038932
  C         3.2575219910       -1.8372643755       14.7022200879
  C         6.4401467713        0.0081432037       12.4420115907
  C         5.3292210275       -0.5388223223       11.7600819809
  C         5.1779844312       -0.2382843976       10.3266409679
  C         4.1186476813        0.5976116413        9.9617930798
  C         3.9827147363        1.0714561987        8.6812192261
  C         4.8116012719        0.5715794154        7.6944730301
  C         5.9188233332       -0.0838723187        8.0710807011
  C         6.0599480037       -0.5926106490        9.3368153415
  H         6.8083844454       -1.3818500745        9.4710995071
  H         6.5598920377       -0.4351746991        7.2743536250
  H         4.7102501595        0.8075057873        6.6672239607
  H         3.0871177816        1.6322814976        8.5116755577
  H         3.5047797930        1.0598865717       10.6696688033
  C         7.5747959140        0.6265156803       11.8014053491
  C         8.5816241153        1.2882154263       12.4818855765
  H         9.2850395850        1.8323869891       11.8602099417
  H         7.5146777669        0.6720840349       10.6834782950
  C         3.3901450658       -2.2872330792       16.1196692203
  C         4.3025362172       -3.3283277953       16.4955649344
  C         4.2179992820       -3.9249395227       17.7452301039
  C         3.4212642372       -3.4102254295       18.7630633537
  C         2.5730158918       -2.3634102460       18.4719415971
  C         2.5032066659       -1.8620732403       17.1649979460
  H         1.9223719009       -0.9191185073       16.9353637197
  H         1.9726592967       -1.8266329610       19.2042871347
  H         3.5273088457       -3.8023311414       19.7896373537
  H         4.8239660207       -4.7518506378       17.9775047931
  H         5.0320785384       -3.7911155751       15.7995506952
  C         0.9564667996       -2.8882616308       14.6188797335
  C        -0.1301778254       -3.4713109798       13.9418608511
  C        -0.2516869314       -3.3672879156       12.5196568665
  C         0.9713134839       -2.9734309875       11.8585390104
  H         1.1041154559       -3.0598330959       10.8148014789
  H        -1.0692813598       -3.7950171155       12.0262082288
  H        -0.9395440456       -3.7740564635       14.6138492474
  H         0.9895944251       -2.9568070383       15.6760736511
  C         3.4217689495       -2.2397232250       10.3556791259
  C         4.2398735449       -3.2923581283        9.9887888756
  C         4.3779095806       -3.7680917785        8.6399120074
  C         3.5558365822       -3.1587086934        7.6927511822
  C         2.5470006205       -2.2610916398        8.0483672548
  C         2.4599109559       -1.8249564589        9.3843740446
  H         1.7147007603       -1.0881922390        9.6608226070
  H         1.9768180440       -1.8259499697        7.2035843292
  H         3.6831350869       -3.4144982306        6.6588748211
  H         4.9714890639       -4.6768412788        8.4135877749
  H         4.8779527159       -3.7102247370       10.8088379835
  C         0.6363145014        6.1918651739       13.7961134121
  C        -0.4500542956        6.8886759025       14.5245528464
  C        -1.4786274019        7.4286466816       13.6991756652
  C        -2.5208774922        8.1683574874       14.3254715019
  C        -3.6193390143        8.6786793104       13.6394569475
  C        -0.4431176179        7.2446340989       15.9709288661
  C         0.2463774425        8.3777962851       16.4280801392
  C         0.1411485880        8.8112617698       17.7451558489
  C        -0.6250828901        8.1368903934       18.6818551777
  C        -1.3118770253        6.9569945672       18.2870627199
  C        -1.2837068904        6.5839961103       16.8829197450
  H        -2.4289069346        8.3089333167       15.3632886056
  H        -4.3909627767        9.2079435768       14.1890569865
  H         0.7699969988        9.0267190112       15.7395793486
  H         0.6726076817        9.7406456991       17.9820349440
  H        -0.5784860807        8.5140364038       19.7145615897
  H        -1.9029036781        6.4968705817       19.0403338953
  H        -1.7986282836        5.6773347430       16.5775627024
  C         0.7279991661        6.2249674753       12.3228578254
  C         1.7745538043        5.4857644456       11.6887389136
  C         2.7870764070        4.8372582401       12.4800721446
  C         2.6806760762        4.8597125712       13.9602707821
  C         1.5787942485        5.5004790635       14.5637054602
  C        -1.4012072872        7.3934475636       12.2845625057
  C        -0.3264646037        6.8533250175       11.5625433549
  C        -0.2341253661        7.2179088906       10.1533122236
  C         0.4305996913        8.4005885821        9.6674524669
  C         0.3236443403        8.7956520068        8.3214445476
  C        -0.4786937142        8.1040734550        7.4284871455
  C        -1.1102238554        6.9217938803        7.8429485978
  C        -0.9883483873        6.4813746829        9.1424953310
  H        -1.4936449163        5.5801558751        9.4465440146
  H        -1.8267140761        6.3448560366        7.2143798125
  H        -0.6636763151        8.5706590966        6.4372906267
  H         0.8902583895        9.6488395457        7.9339412998
  H         0.9348676005        9.0997699737       10.2862525509
  C        -2.5045947094        8.0382397520       11.5947648283
  C        -3.6367877471        8.4719408807       12.2422278726
  H        -4.4831828477        8.8209649613       11.6372972858
  H        -2.4919039479        8.0658905087       10.5149565294
  C         1.4917887080        5.2461298864       16.0529110409
  C         0.7482553726        4.1099352388       16.5088410640
  C         0.8819029109        3.7180922256       17.8538686886
  C         1.6606351411        4.5128828781       18.7497206768
  C         2.3934868902        5.4942465297       18.2564738305
  C         2.3608553377        5.8544088859       16.8825967362
  H         2.9715061895        6.7109659783       16.5139089040
  H         3.0914263288        5.9842923088       18.9218327960
  H         1.6979823616        4.2185601865       19.8226542088
  H         0.3943898953        2.8371845598       18.2004434293
  H         0.2965734634        3.4577115662       15.7274121964
  C         3.6588939553        4.0768973587       14.6584365416
  C         4.5644992374        3.2670984646       14.0106488283
  C         4.6220564323        3.2883889806       12.6204916660
  C         3.8751867412        4.1537297403       11.8745170779
  H         4.1021455336        4.1083651537       10.8065886162
  H         5.4575355986        2.7061141878       12.2061645906
  H         5.3423478297        2.7272487283       14.5499823035
  H         3.6096204307        4.1646507810       15.7051469898
  C         1.8529005010        5.1850887985       10.2018534613
  C         1.1217684578        4.0389914653        9.7543965650
  C         1.2801533290        3.5533775152        8.4651499325
  C         2.1460521751        4.2234303473        7.5531693637
  C         2.8145890119        5.3574754620        7.9858841740
  C         2.6836796412        5.8191100080        9.3208393115
  H         3.2561124679        6.6692334217        9.6721677333
  H         3.5324612239        5.8915636285        7.3569443885
  H         2.3091858107        3.7676252741        6.4987099873
  H         0.7535713078        2.6216428551        8.1713118319
  H         0.5430247270        3.5481208217       10.5094332780
