140

  C        14.5759577904       -0.4642122225        0.5784471868
  C        15.6741916233        0.1932463837        1.2297419625
  C        16.7586119540        0.7451516665        0.4661909658
  C        17.8770081276        1.3311745853        1.1342752699
  C        18.8295185229        2.0158721127        0.3975684266
  C        15.4030007917        0.6405664307        2.6830583816
  C        14.4951975245        1.7042365151        2.9060464304
  C        14.3931870285        2.3161538953        4.1898090487
  C        15.3142854905        1.9525150480        5.1988654583
  C        16.1482514915        0.7896797929        4.9673119482
  C        16.1956423277        0.2072595977        3.7095574294
  H        17.8712358696        1.2741764689        2.1982829346
  H        19.6594717688        2.6116576667        0.8880212781
  H        13.8225450552        1.9673190395        2.1059253843
  H        13.7752010448        3.1960027001        4.1523811099
  H        15.3950555120        2.5576156596        6.1206796150
  H        16.8710789779        0.4237373272        5.7663392104
  H        16.9478012461       -0.6124743074        3.6085236019
  C        14.6040131639       -0.4855362526       -0.8721430590
  C        13.5024558650       -1.1721111706       -1.5340516853
  C        12.3585492317       -1.5530262273       -0.7760017138
  C        12.3223512166       -1.4678667466        0.6828731858
  C        13.5334442777       -1.0515616357        1.3250506427
  C        16.6748584768        0.7820888589       -1.0115232998
  C        15.5844168616        0.2277487430       -1.6327741835
  C        15.3878304420        0.5937642357       -3.0536632620
  C        14.4709257366        1.6550065800       -3.4237021200
  C        14.3168719547        2.1572888621       -4.7109422041
  C        15.1794725392        1.6522163901       -5.6953870107
  C        16.0634499024        0.5580901164       -5.4011593527
  C        16.1755433210        0.0811404673       -4.0802277681
  H        16.9538948218       -0.6511541741       -3.8241569263
  H        16.6298221855        0.0513095490       -6.1656375328
  H        15.1058625092        2.0272075790       -6.7133780516
  H        13.7123211090        3.0172529521       -4.8785646665
  H        13.9472520472        2.1488523554       -2.6045503468
  C        17.7718037039        1.4445189217       -1.7339566601
  C        18.8075966437        1.9883343057       -1.0202199573
  H        19.6161765515        2.5478282539       -1.4793211593
  H        17.7524048793        1.5581527190       -2.8219066213
  C        13.6528103881       -1.4226988841        2.8063642796
  C        14.3879441958       -2.4828931989        3.3262497336
  C        14.2051912550       -2.8557913717        4.6302458265
  C        13.4051882199       -2.0715963091        5.5299007911
  C        12.6263218474       -1.0247741244        4.9763339923
  C        12.7619608347       -0.7080993439        3.6280445054
  H        12.1349099601        0.0268866810        3.0904059086
  H        11.9113673687       -0.5218650696        5.5945586346
  H        13.4654993315       -2.2832886969        6.6994410246
  H        14.6402894571       -3.7288937955        5.1274680173
  H        15.0601615769       -3.0305955054        2.7082036324
  C        11.1832819450       -2.0514649745        1.3776355499
  C        10.0099972444       -2.3331329690        0.7850410794
  C        10.0252204687       -2.3106060753       -0.6473228713
  C        11.1268571228       -2.0612707539       -1.4119403948
  H        11.1422008982       -2.1597329204       -2.4958016810
  H         9.0785516443       -2.5549796672       -1.1386190587
  H         9.1703519127       -2.7143813005        1.3488610089
  H        11.3730636430       -2.1046655426        2.4578516411
  C        13.4990756811       -1.4917721517       -3.0375319761
  C        14.3336465218       -2.4818027151       -3.5565671958
  C        14.2652419370       -2.8715375121       -4.9291295234
  C        13.5281403597       -2.0288205618       -5.8010701225
  C        12.9119370668       -0.8612308154       -5.2743442547
  C        12.7717763638       -0.6258780285       -3.9076671570
  H        12.1562601687        0.1159472297       -3.4835159690
  H        12.4775803466       -0.1004923119       -5.9099284560
  H        13.4174342877       -2.2102458987       -6.8872745889
  H        14.8897484284       -3.7015653671       -5.2769292326
  H        14.8361675048       -3.1090609706       -2.8344637187
  C        11.1381915393        6.8463532083        0.5474086842
  C        10.1653808942        7.5108888487        1.3239717295
  C         9.0902749712        8.1485819010        0.6385588606
  C         8.1853647980        9.0137636687        1.4201911047
  C         7.0561982873        9.4985585408        0.7896844368
  C        10.2693369915        7.8469972572        2.7732424130
  C        11.0158184342        8.9741917086        3.0786853861
  C        10.9988783532        9.4350370059        4.4407111534
  C        10.1638966596        8.8620554311        5.3801769271
  C         9.4238603787        7.7943287291        5.0086249426
  C         9.3083245273        7.3044963096        3.6906676309
  H         8.3953491301        9.3201690591        2.4107438895
  H         6.2964981888       10.0251612362        1.4524785956
  H        11.6464830199        9.4497917528        2.2840114366
  H        11.6533743829       10.1972521633        4.6972414657
  H        10.1279500612        9.1789705038        6.3735771410
  H         8.7452475801        7.4159101412        5.7295463329
  H         8.7003120121        6.3884473719        3.4677128466
  C        11.1510937266        6.9633432189       -0.9336321799
  C        12.1684413093        6.2260243759       -1.6260080835
  C        13.1524997573        5.5426830101       -0.8793388182
  C        13.2283931956        5.5905036803        0.6321570129
  C        12.1546854396        6.1997325896        1.2720565974
  C         9.0355162857        8.2348627596       -0.8076484658
  C        10.0788556174        7.6840888062       -1.6574768619
  C        10.1339560054        8.1347784359       -3.0654529392
  C        10.9362671552        9.2149010172       -3.4361994467
  C        10.9486409866        9.6610916722       -4.7649494646
  C        10.1994132607        8.9633696472       -5.7515321916
  C         9.3791764736        7.9187754799       -5.3125711275
  C         9.3542097641        7.4889347812       -4.0411192083
  H         8.6422663138        6.7359388216       -3.8003173328
  H         8.6107663556        7.4731021370       -5.9915489957
  H        10.1782627442        9.2799741724       -6.7953102884
  H        11.4733701184       10.6032776564       -5.0241449960
  H        11.2832711772        9.8192131605       -2.6014692659
  C         7.8111163194        8.8537613314       -1.3575842898
  C         6.7704554638        9.3439742347       -0.5666694859
  H         5.8402436411        9.6944107144       -0.9709022084
  H         7.5627572151        8.7771214337       -2.4653400909
  C        12.0471548727        5.9255725600        2.7820879945
  C        11.2221014859        4.8792567687        3.1569586995
  C        11.2201982869        4.3912648791        4.4465262097
  C        12.1567111942        4.8901744964        5.3727796507
  C        13.0319436067        5.8458597946        4.9192632944
  C        12.9652769927        6.4036603840        3.6770791137
  H        13.7004372991        7.1798649625        3.5073009897
  H        13.8549781415        6.1359035850        5.5654868957
  H        12.3686935526        4.5220316678        6.3678697639
  H        10.5539122251        3.6243576875        4.7798912902
  H        10.5343649335        4.4553207007        2.3674393644
  C        14.3914309099        5.0020983733        1.2470118831
  C        15.3438157104        4.2953988435        0.5775361108
  C        15.1891496226        4.1140876190       -0.8096789103
  C        14.1514755904        4.7105163968       -1.5222600773
  H        14.1719552789        4.6154587576       -2.6206842411
  H        15.8407847285        3.3541710381       -1.3830601979
  H        16.1941181331        3.9531094190        1.1274737065
  H        14.5150246544        5.1466500617        2.3441229630
  C        12.0630326253        5.9043511926       -3.0753924570
  C        11.1772963375        4.9163492663       -3.4762036900
  C        11.2559710775        4.4094131076       -4.8011586204
  C        12.0121462156        5.0972139828       -5.7154630604
  C        12.8685337294        6.1828060096       -5.3231508141
  C        12.9356825937        6.4902693254       -4.0018097578
  H        13.5791409027        7.2317585754       -3.5521182166
  H        13.5409750571        6.6103710777       -6.0518462699
  H        12.0445021850        4.6649325405       -6.6933280743
  H        10.6035051923        3.5750701031       -5.0740832793
  H        10.5893812646        4.3792549393       -2.7578622161
