140

  C        15.1818431714       -0.6705021262        0.6101717300
  C        16.1474736351       -0.0108517522        1.3504754933
  C        17.2334146134        0.6396187289        0.6555497880
  C        18.2114483737        1.4074154864        1.2945962246
  C        19.2187412813        2.1526192432        0.7459024817
  C        16.1563605357        0.2207647884        2.8363799433
  C        15.2638065956        1.1629764115        3.3457917724
  C        15.3475427129        1.6152062907        4.6738813765
  C        16.3979047200        1.1524474515        5.5106597787
  C        17.2651740320        0.1532534403        4.9952310775
  C        17.1309334500       -0.3132242946        3.6748842236
  H        18.2293433423        1.3532755077        2.3881711449
  H        20.0545015110        2.5561110848        1.3272335118
  H        14.3850411576        1.5419755006        2.7380155676
  H        14.6568037485        2.3729252778        5.1239581906
  H        16.6245414024        1.4103630705        6.5529563484
  H        17.9415755710       -0.4036043195        5.6992209909
  H        17.5804458627       -1.1871465367        3.3020331639
  C        15.2499078569       -0.6647710545       -0.8217371386
  C        14.2426276058       -1.3125185551       -1.5599582820
  C        13.1656024377       -1.8899415392       -0.8813528405
  C        13.0702094089       -1.9800697730        0.5320354631
  C        14.0890512454       -1.4371153779        1.2598949919
  C        17.2642019105        0.7056570711       -0.7576515593
  C        16.2717509346        0.0787752103       -1.5066696776
  C        16.2959621824        0.4925792479       -2.9417267830
  C        15.5446117217        1.6468893428       -3.2775827790
  C        15.4323582143        2.0249050311       -4.6072592836
  C        16.1944985822        1.3748827230       -5.6176701306
  C        16.9194269733        0.2739452796       -5.2894041940
  C        16.9880840026       -0.1415602810       -3.9552292406
  H        17.5685392896       -1.0342610155       -3.8441898117
  H        17.5397226366       -0.3127347375       -6.0230912909
  H        16.1936137369        1.8400984220       -6.6052660989
  H        14.8017181188        2.9007774068       -4.8506332435
  H        15.0464317048        2.1588968462       -2.4467629768
  C        18.4389089448        1.3245033105       -1.3529335024
  C        19.3288996607        2.1636366288       -0.7192288957
  H        20.0829136103        2.6444769514       -1.2411834130
  H        18.6494061497        1.1863443621       -2.4520524614
  C        14.1057225878       -1.6922511493        2.6963132081
  C        14.7102266349       -2.8731851846        3.2268243707
  C        14.6221150365       -3.2707680063        4.5365039789
  C        13.7330915524       -2.5978289694        5.4169482867
  C        12.9187954924       -1.5433459117        4.8650682663
  C        13.2136988253       -1.0961005289        3.5944281565
  H        12.5871724995       -0.2883810141        3.1892132445
  H        12.1769577061       -1.1487220966        5.4797170171
  H        13.7338937119       -2.8023130858        6.4312806194
  H        15.1274610373       -4.1862867547        4.8833605197
  H        15.2896339512       -3.5108018645        2.4968989397
  C        11.9504614957       -2.6902839617        1.1506918070
  C        10.9040227780       -3.1162769894        0.3748399908
  C        10.9418192206       -2.9931440483       -1.0583993320
  C        12.0178302501       -2.4508526152       -1.6798832508
  H        12.1612968071       -2.4313873918       -2.7666734646
  H        10.0678123531       -3.4101195766       -1.6065268165
  H        10.0267724677       -3.5563697567        0.8263016203
  H        11.8409298489       -2.7885658712        2.2537953898
  C        14.4066744396       -1.6581610511       -3.0136993737
  C        15.2432060000       -2.7596899581       -3.2039184093
  C        15.4184306749       -3.2581502906       -4.5196186430
  C        14.7585115102       -2.6273392665       -5.5679272015
  C        13.9081003584       -1.5458743874       -5.3183393041
  C        13.7157819023       -1.0429091548       -4.0108770108
  H        13.0730694264       -0.1849856296       -3.8221897866
  H        13.2403559874       -1.2459198820       -6.1630014977
  H        14.9556723863       -2.9292311286       -6.6170915206
  H        15.9943719568       -4.1295819502       -4.7601294956
  H        15.7560570326       -3.1679481821       -2.3292596865
  C        11.5002697520        6.7687164560        0.6987466601
  C        10.5054394897        7.5320708398        1.4086253666
  C         9.3955315307        7.9990521707        0.6580366550
  C         8.2295459589        8.5681511254        1.2908544591
  C         7.1620406521        9.0836855760        0.5280979599
  C        10.4519458404        7.7449180761        2.8912068377
  C        11.3200584450        8.6599588004        3.5525572534
  C        11.1782069935        8.9704633255        4.9188687096
  C        10.3064840341        8.1991664890        5.6777760599
  C         9.5283091830        7.2097305691        5.0354965769
  C         9.6174348672        6.9647854546        3.6307981271
  H         8.1686928701        8.7673779360        2.3279408785
  H         6.3336056414        9.5085493308        1.0286875318
  H        12.1418492568        9.2078973607        2.9610739576
  H        11.8071497904        9.7185100999        5.4700732138
  H        10.1619744672        8.3283468653        6.7809581932
  H         8.8267457523        6.5857996314        5.6371193118
  H         9.0896634336        6.0759195797        3.1849073593
  C        11.5427481063        6.7237094003       -0.7577970833
  C        12.6687378424        6.0682486148       -1.4427886800
  C        13.6754401755        5.4738270891       -0.6401043685
  C        13.5086126730        5.2925810485        0.7752988524
  C        12.4170598542        5.9705864293        1.4701120290
  C         9.3303424224        7.8551868439       -0.8141602938
  C        10.4747116172        7.3232372326       -1.5337195496
  C        10.6171691139        7.6571184730       -2.9664802688
  C        11.5977144341        8.6291986457       -3.2939322714
  C        11.7223524630        9.0973788653       -4.6519040363
  C        10.7412821902        8.7150629313       -5.6443096689
  C         9.7876923029        7.7578171810       -5.2884061479
  C         9.7582647570        7.1964925445       -4.0028615848
  H         9.0996086788        6.4074950560       -3.7145400422
  H         9.0675578587        7.3433419780       -5.9403936917
  H        10.8499613808        9.0810992515       -6.6680458545
  H        12.4954644338        9.7430411313       -4.9252959357
  H        12.3009965838        9.0722241498       -2.5463254108
  C         8.2689891318        8.3920760154       -1.5330579243
  C         7.1481413124        9.0047499422       -0.9205952685
  H         6.3023838055        9.5033626632       -1.4845818000
  H         8.3284546869        8.3714383533       -2.6573296315
  C        12.1893457388        5.4439145210        2.8587221455
  C        11.3418028557        4.3653811502        3.0329162723
  C        11.3242832101        3.6240111270        4.2804869737
  C        11.9889932617        4.1515247180        5.4092614947
  C        12.9295429581        5.2039393192        5.1708021413
  C        12.9544746365        5.8790193378        3.9281569670
  H        13.7625006612        6.5332676734        3.6997761381
  H        13.6172395537        5.4321844915        5.9750633922
  H        11.8320158014        3.7665965300        6.4012809534
  H        10.6720786554        2.8011923014        4.3519846462
  H        10.7524868560        4.0883326095        2.2154381596
  C        14.4648917474        4.3875159913        1.4228037989
  C        15.5540242835        3.8822527440        0.7121103144
  C        15.7180773861        4.1665420876       -0.6848537789
  C        14.7102864690        4.9108991379       -1.3422703311
  H        14.7798086897        4.9758605334       -2.4324704076
  H        16.6580080289        4.0067895170       -1.2189447103
  H        16.2016518116        3.2293856371        1.2784945089
  H        14.3082235864        4.1450070301        2.4281364339
  C        12.6028496859        5.6051255833       -2.8773039651
  C        11.7436085783        4.4827656680       -3.0282609598
  C        11.7015298864        3.7990212308       -4.2730207699
  C        12.4328010643        4.2480180067       -5.3934774145
  C        13.1932920171        5.4322006054       -5.2753200970
  C        13.2361819122        6.1533519559       -4.0540397381
  H        13.8123020557        7.0504308914       -3.8369530071
  H        13.8188626035        5.7193851990       -6.1214320370
  H        12.1381319612        3.7809815439       -6.3692149249
  H        11.0076997790        2.9936214290       -4.3954178684
  H        11.2363919085        4.0289706773       -2.1748051375
