140

  C         4.0582220728       -0.2524764522       14.4322112427
  C         5.0707981681        0.5431508710       15.0488448022
  C         6.2398009798        0.9338314906       14.3267316841
  C         7.2682576555        1.6095104472       14.9854215612
  C         8.2942400588        2.3185937429       14.4133698447
  C         4.9975187155        0.9087975455       16.5620603202
  C         4.0013249431        1.8387127391       16.9349822816
  C         3.8510579338        2.3329242046       18.2232026139
  C         4.6004729165        1.7376223738       19.2611750796
  C         5.5971676785        0.7612249948       18.8531767067
  C         5.7494878346        0.2553400728       17.5737968235
  H         7.2674607695        1.4564144949       16.0827722309
  H         9.0764932442        2.7965947288       14.9694222748
  H         3.3466139863        2.2989213179       16.1924739668
  H         3.1386961746        3.1942447716       18.3640886920
  H         4.6481042610        2.0449200365       20.2759763299
  H         6.0784007869        0.1619471061       19.6413545539
  H         6.4871794535       -0.4487345323       17.2114659432
  C         4.0181615511       -0.2730319528       12.9367686975
  C         3.1037878158       -1.0968634154       12.3136014628
  C         2.0026590562       -1.6403400507       13.0441180543
  C         2.0622939758       -1.5742466008       14.4878973465
  C         3.1520425103       -1.0439580467       15.1816487936
  C         6.1643976136        0.9760725312       12.8998704705
  C         5.0180484345        0.4944770661       12.2232795063
  C         4.8596222170        0.8595016841       10.8085417287
  C         4.0740956818        1.9470585212       10.3677112785
  C         3.9961562548        2.2803035946        9.0299261266
  C         4.8065866088        1.7387602390        8.0876229160
  C         5.7634334730        0.8016621894        8.5357128481
  C         5.7867607276        0.3864739293        9.8675665143
  H         6.2844915984       -0.5542728624       10.1896014005
  H         6.4002800519        0.2481099981        7.7994318278
  H         4.7232939734        2.0587804489        7.0104866054
  H         3.3205756623        3.0215072616        8.6918546710
  H         3.3777381441        2.3854057423       11.0584062568
  C         7.2172928230        1.8445455008       12.2757052490
  C         8.2230838837        2.4395255236       12.9886158563
  H         8.9829041863        2.9538337597       12.4628685899
  H         7.2422699436        1.8448688031       11.1793131580
  C         3.3076217351       -1.4307833029       16.6229218455
  C         4.3358374363       -2.3047222775       16.9342910474
  C         4.4651611285       -2.7741771744       18.2677646702
  C         3.6191740054       -2.3185116765       19.2575550538
  C         2.5651830702       -1.5140031886       18.8485613111
  C         2.4312826940       -0.9836383261       17.5851794152
  H         1.5973588064       -0.3249750783       17.3645387942
  H         1.6744015124       -1.3814222493       19.5489185323
  H         3.6225848222       -2.7207425178       20.2278144276
  H         5.3629743614       -3.4092104387       18.5567706330
  H         5.1281848329       -2.4373256998       16.1999662160
  C         1.0203102191       -2.1836803376       15.1713047592
  C        -0.0738156163       -2.7396064862       14.5775557984
  C        -0.1920653925       -2.7000059403       13.1682219415
  C         0.8266672676       -2.2065997925       12.3847440297
  H         0.7390670126       -2.1371738713       11.3328815324
  H        -1.1279897296       -3.0886193806       12.7738266893
  H        -0.8630471956       -3.3095379396       15.0424158740
  H         1.0726918726       -2.3947127413       16.1989174514
  C         3.1270243449       -1.4913235111       10.9239697315
  C         3.7502110229       -2.6879137283       10.6725981300
  C         3.7395211909       -3.2519598422        9.3925594033
  C         3.1404682177       -2.6529836910        8.3345461754
  C         2.4154173981       -1.4075797569        8.5542963448
  C         2.4169270255       -0.8666396377        9.8469155180
  H         1.8781055375        0.0572333133        9.9768789426
  H         1.9017366326       -0.8712371898        7.7847422513
  H         3.2247622917       -3.0065769094        7.3456354074
  H         4.2425856290       -4.1646177657        9.1720427257
  H         4.3880208397       -3.1566394995       11.4123608415
  C         0.4484249049        6.8509633262       14.0922270005
  C        -0.5214605749        7.5819922863       14.8019115378
  C        -1.6269281848        8.2074895609       14.1259406325
  C        -2.6605837969        8.9591689762       14.7830397269
  C        -3.5769912363        9.7552094801       14.1068144726
  C        -0.5052246278        7.8967937620       16.3045916486
  C         0.2508902054        8.9948608646       16.6922647742
  C         0.0191863181        9.5676354026       17.9706071414
  C        -0.8383116367        8.9865871363       18.8983547138
  C        -1.5360690726        7.8085151674       18.5312118849
  C        -1.4397970143        7.3429077555       17.2420685091
  H        -2.6137122698        8.9598894104       15.8603065533
  H        -4.2232803472       10.3908716830       14.6920461698
  H         0.8958032919        9.4961381215       15.9883361450
  H         0.5529935597       10.4792978813       18.1997062445
  H        -0.8342348478        9.2789102803       19.9455622756
  H        -2.1203121211        7.2095357456       19.2042431926
  H        -1.9133591520        6.4138465303       16.9735366108
  C         0.4095014102        6.8421779568       12.6014141180
  C         1.4269442585        6.0823475862       11.8702239938
  C         2.5817848868        5.6557472672       12.5819566897
  C         2.6572278106        5.7760430909       14.0380220218
  C         1.5830530754        6.2599713938       14.7614501934
  C        -1.6797710662        8.2155972126       12.6909378430
  C        -0.5877184575        7.6260565569       11.9652427397
  C        -0.3884948596        7.9713029513       10.5216903727
  C         0.5064430055        8.9502708558       10.1090895240
  C         0.5112767269        9.3332599369        8.7446543784
  C        -0.3110561223        8.7459951848        7.8494918408
  C        -1.2360133552        7.7445476160        8.3101311278
  C        -1.1901726643        7.2839751681        9.5882654403
  H        -1.9490223853        6.5763224271        9.9922509673
  H        -1.9844307787        7.3500791228        7.6546548533
  H        -0.2573285284        8.9066099213        6.7415645664
  H         1.2093667638       10.0590285883        8.4108779659
  H         1.1975992641        9.5135199925       10.6869515449
  C        -2.6597560438        8.9613052792       12.0169047197
  C        -3.5254497733        9.7714271086       12.6521593379
  H        -4.1652230480       10.4477225286       12.0736916623
  H        -2.7362676883        9.0449589342       10.9240651354
  C         1.6075531224        5.8398786220       16.2273264541
  C         0.7873975121        4.8031570500       16.6687305527
  C         0.7107152895        4.4490708058       18.0405064427
  C         1.4674249630        5.1675176953       18.9405176488
  C         2.3184421403        6.2131869987       18.5332872074
  C         2.4035639588        6.4990160971       17.1694603580
  H         3.1134676348        7.2697989162       16.9055075226
  H         2.9769729742        6.7324991952       19.1738708730
  H         1.4507005916        4.7558435851       19.9382526812
  H        -0.0037363009        3.7050805398       18.3750235654
  H         0.1695013195        4.2899445620       15.9255230075
  C         3.7616982587        5.0817647331       14.6780588424
  C         4.5863218423        4.3104948200       13.8740460990
  C         4.5273633502        4.2634015773       12.4847767178
  C         3.6384250488        5.0382786425       11.8424764232
  H         3.7292270618        5.0579740622       10.7571673530
  H         5.2654068823        3.6746565169       11.9955632563
  H         5.3459500136        3.7184535777       14.4349259989
  H         3.8455015673        5.0305058154       15.7421139142
  C         1.2918162901        5.6501452432       10.4534197858
  C         0.3738476066        4.6327054046       10.1377313735
  C         0.2304644492        4.0830537798        8.8653375049
  C         1.0286398761        4.6618736583        7.8293743985
  C         1.7919789647        5.7929073192        8.1207870705
  C         2.0067302834        6.2853393167        9.4155085349
  H         2.6481289635        7.1250418554        9.7166817722
  H         2.2898813560        6.2219744643        7.2778391771
  H         1.0862468982        4.1835167640        6.8357676755
  H        -0.5543323504        3.3081462489        8.7754145894
  H        -0.2285356556        4.2553966469       10.9521709859
