140

  C        14.9835089652       -0.5120884711        0.5711102844
  C        15.9359774906        0.2558236566        1.3163034407
  C        17.0154397879        0.8917602466        0.6355014078
  C        18.1603705359        1.5201221368        1.2486482105
  C        19.3154057331        1.8270080133        0.5852310094
  C        15.8264341547        0.6243101239        2.7636966109
  C        14.9139780514        1.5601277961        3.1941445418
  C        14.8418608709        2.0226358845        4.5421400731
  C        15.8380921306        1.6182613883        5.4723323839
  C        16.7564011523        0.6614048866        5.0884276929
  C        16.7780343115        0.1431058786        3.7649154502
  H        18.1250780519        1.6314542302        2.3241979622
  H        20.1209631928        2.2662635347        1.1585140550
  H        14.1658405039        1.9420674591        2.4285614801
  H        14.1671777242        2.8146648302        4.7409662528
  H        16.0396478630        2.1143481249        6.4408542218
  H        17.5516845471        0.3022265635        5.7999826146
  H        17.4768370293       -0.6667935154        3.4782518741
  C        15.0053374552       -0.4693253316       -0.9496518578
  C        14.0455871450       -1.2370489918       -1.7059110776
  C        12.9702271707       -1.7813315705       -0.9594703602
  C        12.9423007550       -1.8439193577        0.5032104373
  C        14.0372918915       -1.2918156327        1.2600508709
  C        17.1321787280        0.7796848736       -0.8148606373
  C        16.0570462572        0.2586281477       -1.5720994771
  C        16.1093732704        0.5888115131       -3.0175388905
  C        15.3624668680        1.6857081329       -3.4884985309
  C        15.3143034456        2.1069046404       -4.8440197166
  C        16.2466968458        1.5342177313       -5.7145809205
  C        17.0287862318        0.4426604565       -5.2741761995
  C        16.9419012170       -0.0446509075       -3.9688364941
  H        17.4042927811       -0.9977614088       -3.8612832383
  H        17.6800423683       -0.1055326625       -6.0228284289
  H        16.0837793013        1.7132317548       -6.7762779902
  H        14.6860756608        2.9350756608       -5.1343360062
  H        14.7353620995        2.2269847906       -2.7899735829
  C        18.2982120450        1.2784239803       -1.4808510036
  C        19.3663060353        1.7454688268       -0.8320666110
  H        20.2987355307        1.9497610555       -1.3665038205
  H        18.3616951438        1.2285974564       -2.5921341251
  C        14.1358727831       -1.6980219831        2.7143646788
  C        15.1468043573       -2.5068240738        3.2487273447
  C        15.0986620493       -2.9534530975        4.5375278967
  C        13.9664513269       -2.6195306585        5.4057600944
  C        12.9566538497       -1.8909952856        4.8683406737
  C        13.1039483928       -1.2558824376        3.5841669617
  H        12.3134545067       -0.6670672436        3.1240542763
  H        12.0962054268       -1.7440924472        5.4680441032
  H        14.0306998357       -3.0760384981        6.3919831929
  H        15.9477056098       -3.4505962358        4.9915758002
  H        15.9757156025       -2.8321070478        2.4973784530
  C        11.9302781410       -2.6065004835        1.1465655003
  C        10.7497427652       -2.9044812385        0.4459268807
  C        10.7877080968       -2.8868277653       -0.9398564279
  C        11.8756406913       -2.3887554318       -1.6601451664
  H        11.9268453646       -2.5293926154       -2.7460041136
  H         9.9261377417       -3.3222375463       -1.5137429186
  H         9.9011063662       -3.2237678881        1.0317855247
  H        11.9844095329       -2.8109702590        2.2570021767
  C        14.1308252297       -1.4489283788       -3.1917976624
  C        14.7766987561       -2.6718649176       -3.5654154187
  C        14.6223596921       -3.2049062744       -4.8920141004
  C        13.9206412532       -2.3865041042       -5.8304613004
  C        13.3734987391       -1.1443863036       -5.4679990495
  C        13.3316814435       -0.7363943673       -4.1216086511
  H        12.6012335364        0.0348385809       -3.7850192778
  H        12.7475245897       -0.6349433375       -6.2411060841
  H        13.7327137864       -2.7314631162       -6.8571118006
  H        15.0420757234       -4.1192189337       -5.2008725181
  H        15.4136468515       -3.0802754216       -2.8201739309
  C        11.4936606176        6.6402750232        0.6687671365
  C        10.4155554444        7.2660427053        1.3350610129
  C         9.2860625895        7.7682740970        0.6305316435
  C         8.1103635796        8.3026844051        1.2389286596
  C         7.0922085812        8.8369779380        0.5309150139
  C        10.4529899106        7.6517877410        2.8163227549
  C        11.0649696889        8.8757658975        3.1100657095
  C        11.1970538701        9.2740441573        4.4439959512
  C        10.5678320062        8.6296225887        5.4826403433
  C         9.8038193055        7.4552433913        5.1909543094
  C         9.7028620329        7.0171321919        3.8281945312
  H         8.2034460018        8.4785920905        2.3104003087
  H         6.2795018617        9.3792453892        1.0467855324
  H        11.5514040067        9.3887548632        2.4042260722
  H        11.7648070270       10.2037630820        4.6091260392
  H        10.5499759219        9.0816182097        6.4752081252
  H         9.2533085007        6.9595159881        6.0499308910
  H         9.0716751695        6.1084883832        3.6051107400
  C        11.4933257844        6.6589008059       -0.8056236161
  C        12.4954008749        5.9116514084       -1.4836946025
  C        13.5001366902        5.3071227847       -0.8017282242
  C        13.6289316849        5.3612819742        0.6766007314
  C        12.5596561272        5.9163774019        1.3708954644
  C         9.3459513602        7.8201618197       -0.7960557926
  C        10.4287057884        7.2884113725       -1.4808534159
  C        10.4418724968        7.6199350761       -2.9703773135
  C        11.0091129144        8.8030771576       -3.4739553974
  C        10.7948217585        9.1893350987       -4.8088902515
  C        10.0898449546        8.3915086475       -5.6614877352
  C         9.6709696065        7.1234051682       -5.2180898970
  C         9.7784717167        6.7504850256       -3.8739917859
  H         9.4572898775        5.7714830130       -3.6670532801
  H         9.2639901140        6.4397601873       -5.9196334052
  H         9.7846315461        8.6772072724       -6.6609996494
  H        11.1203503652       10.2191926178       -5.1288669560
  H        11.5037880901        9.4259298322       -2.7417003530
  C         8.1993831782        8.3962779375       -1.5167689545
  C         7.1344308403        8.8359486998       -0.8543022113
  H         6.3220712929        9.2754900319       -1.4725550645
  H         8.3596611234        8.4884538866       -2.6190015617
  C        12.5524042825        5.8833773390        2.8850301868
  C        11.9647792683        4.7467897470        3.4666074085
  C        11.9520068162        4.5504308747        4.8753336457
  C        12.5505006539        5.4622544661        5.7303846699
  C        13.1676622131        6.5817926754        5.1576735761
  C        13.2108362462        6.7855577341        3.7316354668
  H        13.8250458892        7.5591840025        3.2905306351
  H        13.7437173738        7.2248676272        5.8104200573
  H        12.5771342946        5.3324894792        6.8111904396
  H        11.4016272461        3.7224622786        5.2799488217
  H        11.4795381276        3.9598106155        2.8707444648
  C        14.7942488929        4.7082588281        1.3575555277
  C        15.8079564336        4.1188561676        0.6301343867
  C        15.7302815264        4.1656437707       -0.7348807731
  C        14.6006571996        4.6499011476       -1.4356875196
  H        14.7939467065        4.7177473895       -2.5572779092
  H        16.4496876965        3.7577769808       -1.3857752590
  H        16.6264898025        3.6499964502        1.1124850243
  H        14.7248110086        4.6452575914        2.4140113528
  C        12.4045823912        5.6134969888       -2.9490940466
  C        11.7175830683        4.4191942093       -3.3211850899
  C        11.8564795561        4.0107681165       -4.7001137638
  C        12.6510749404        4.7254126710       -5.5518537807
  C        13.3595015517        5.8787993461       -5.0787340735
  C        13.1924985095        6.3208695075       -3.8215086052
  H        13.7969107010        7.0585724783       -3.3271905655
  H        13.9012945995        6.3170623741       -5.9247910188
  H        12.8292900831        4.3452880697       -6.5255079420
  H        11.3373527081        3.0817510849       -5.1805386385
  H        11.1705155487        3.8273852785       -2.5191378039
