140

  C         3.5943010893        0.0454527964       14.6438604956
  C         4.6318006725        0.6823308805       15.3129335169
  C         5.6805712535        1.2667712452       14.5613682306
  C         6.7113913987        2.0523783840       15.1894100350
  C         7.7703498867        2.5734369988       14.4923092724
  C         4.4328371284        1.0869802351       16.7287841585
  C         3.4677146850        2.1024283249       16.9143201497
  C         3.4325527649        2.8321153004       18.1196715624
  C         4.3401760486        2.5700641524       19.1224625164
  C         5.2455142973        1.5586248011       18.9570329542
  C         5.2798001922        0.7740282690       17.8291093430
  H         6.6493235322        2.0824277282       16.2652462659
  H         8.4815953520        3.1630961045       15.0314648974
  H         2.7293253445        2.2407164951       16.1215469603
  H         2.6829329371        3.6404443863       18.1336588334
  H         4.2280961706        3.1082985179       20.0512181495
  H         5.8044862467        1.3511665031       19.8639596485
  H         6.0960607586       -0.0148833548       17.6861926382
  C         3.5378224849        0.0331576240       13.1523807267
  C         2.5101259622       -0.7058117092       12.4189780302
  C         1.4993167833       -1.2508828600       13.1764846247
  C         1.5130954340       -1.3047350315       14.5683913185
  C         2.6161837011       -0.7843944723       15.2640194499
  C         5.7567930141        1.1821912887       13.1371858594
  C         4.5660185400        0.6835632267       12.4698643116
  C         4.3769322806        1.0756457102       11.0438971756
  C         3.7100454723        2.3169575900       10.6731220568
  C         3.7782720448        2.8800271473        9.4159563485
  C         4.5735348201        2.1891568346        8.3656012647
  C         5.2852707274        0.9744230805        8.7381775373
  C         5.2065735555        0.4970628593       10.0994957437
  H         5.8389893439       -0.3329778143       10.4191674531
  H         5.8375904053        0.3714180884        8.0145512623
  H         4.6838066130        2.7136131513        7.3917295321
  H         3.2896184051        3.8445478149        9.2502743988
  H         3.1102053798        2.8058143359       11.4863101383
  C         6.8277169722        1.7832155323       12.4201480137
  C         7.8042147957        2.4609014327       13.0817681489
  H         8.5765620922        3.0131522067       12.5573396891
  H         6.9339515949        1.7808652147       11.3519491691
  C         2.6496778679       -1.0015280251       16.7440172309
  C         3.6048137730       -1.9989880127       17.1740184468
  C         3.6454163638       -2.3757042366       18.4919126347
  C         2.7228516929       -1.8651292917       19.4530128298
  C         1.7944672549       -0.8787115211       18.9987010709
  C         1.7526136441       -0.4536920154       17.6584355971
  H         1.1092509048        0.3535013579       17.3895566486
  H         1.0906643421       -0.3658094676       19.6771425006
  H         2.6995696483       -2.1737039092       20.4911540085
  H         4.3495677431       -3.1622197735       18.7341461620
  H         4.1972836272       -2.5041484021       16.4224739007
  C         0.3321592520       -1.8539841412       15.2284034319
  C        -0.8053781239       -2.2489633054       14.5959929633
  C        -0.6960935205       -2.3584828201       13.1884191706
  C         0.3810128917       -1.9334988331       12.5268217732
  H         0.4837860804       -2.0672137040       11.4574302404
  H        -1.4995630053       -2.7857409189       12.5874584820
  H        -1.6687003883       -2.3816573324       15.1966829084
  H         0.3232771147       -1.8797478642       16.2717820932
  C         2.6382979732       -0.9901495344       10.9534155147
  C         3.5890034505       -1.9220704638       10.4690984409
  C         3.4859886642       -2.3165310862        9.1510717955
  C         2.5287776381       -1.7722357115        8.2574778164
  C         1.6032785202       -0.7980089040        8.7102623013
  C         1.7540079593       -0.3754019947       10.0255831974
  H         0.9996232984        0.4633338791       10.2714067317
  H         0.9297869598       -0.3663434188        8.0245547078
  H         2.3378248358       -2.2695354092        7.3233566803
  H         4.1182909259       -3.1750890082        8.8177071704
  H         4.3671266438       -2.3066057079       11.1205775295
  C        -0.2059713573        7.3322516718       14.5767713162
  C        -1.1141852862        8.1234300077       15.3058596432
  C        -2.1209411821        8.7547168601       14.5647362931
  C        -3.2142268392        9.3467051314       15.3010051449
  C        -4.1997694382       10.1070069726       14.6742048894
  C        -1.0573404014        8.4645048814       16.7440999227
  C        -0.2503446090        9.5492876422       17.1731678929
  C        -0.3964662066       10.0339620923       18.4753235975
  C        -1.1116990281        9.3300282282       19.4535320006
  C        -1.7645285727        8.1540549077       19.0716509503
  C        -1.7708093976        7.7385820210       17.7179260745
  H        -3.2089445766        9.2211129806       16.3914197292
  H        -5.0097822944       10.4954262311       15.2772490087
  H         0.2741717423       10.1535011250       16.4561696724
  H         0.2059209784       10.8774453272       18.7992652558
  H        -1.1061090623        9.6500255900       20.4866872182
  H        -2.2829213031        7.5103854275       19.7892446466
  H        -2.3404514740        6.8663456728       17.3943122979
  C        -0.1900637268        7.2974542892       13.0254659988
  C         0.8845827028        6.5621642292       12.2833023833
  C         2.0318565310        6.0631932979       13.0090678034
  C         2.0002105437        6.1192456418       14.4962028438
  C         0.8615066195        6.6598965629       15.2129293872
  C        -2.0739812147        8.8869364929       13.1392557865
  C        -1.0694156928        8.1974196990       12.4045476588
  C        -0.8188969214        8.6909531050       10.9602668789
  C         0.3395999812        9.4402458676       10.8557676669
  C         0.7788976449        9.9830289032        9.5851382247
  C         0.1574820957        9.5521576924        8.4095709810
  C        -0.9773035105        8.7580885883        8.4819557626
  C        -1.5251419619        8.4068844421        9.7567010878
  H        -2.4248350834        7.7438596001        9.8013944354
  H        -1.5010849336        8.4592288566        7.6157839409
  H         0.4496124605        9.8431884933        7.4407232637
  H         1.7652213578       10.4394363446        9.4984494184
  H         0.9636880558        9.6413795086       11.7397456776
  C        -3.1516347443        9.6377822702       12.5081815552
  C        -4.1821656487       10.1702906046       13.2481196833
  H        -5.0106216033       10.7043765731       12.7660757094
  H        -3.0513151256        9.9361723174       11.4637165501
  C         0.8672950738        6.3155697888       16.6603879524
  C        -0.0258964202        5.2810722360       17.1242435187
  C         0.0793072235        4.8330110031       18.4139967567
  C         0.9994061914        5.4066908474       19.2907017267
  C         1.8310675808        6.4506841665       18.8934303039
  C         1.7807882993        6.9057188255       17.5847133719
  H         2.4861402221        7.6794477067       17.1846686677
  H         2.4570759993        6.9352181231       19.6305335628
  H         1.1033728503        4.9863589679       20.3110218918
  H        -0.4998625505        3.9563032824       18.7908246691
  H        -0.7257884618        4.8065214801       16.4439602693
  C         3.0370699676        5.5441399071       15.2069479470
  C         4.1441958118        5.0395103958       14.5345368982
  C         4.1926752833        5.0054774499       13.1595830738
  C         3.1973603952        5.4508524497       12.3638125099
  H         3.3230728041        5.4847878132       11.2724838518
  H         4.9815359841        4.5316847182       12.5608276881
  H         4.8402990206        4.4950804578       15.1148340796
  H         3.0017990418        5.3842345343       16.2348493012
  C         0.7480142195        6.3917730602       10.7983265596
  C        -0.4348087063        5.7893336048       10.3074847771
  C        -0.4644414898        5.2799806445        9.0052407158
  C         0.5691858164        5.4292904858        8.1038779229
  C         1.7117086052        6.1289266560        8.5681932707
  C         1.7896407818        6.5997671892        9.8891001049
  H         2.6589993223        7.1429266073       10.2301404446
  H         2.5619009704        6.2176515689        7.8883053313
  H         0.4733942575        5.0739681794        7.0627179573
  H        -1.4053094565        4.7987476606        8.8003340406
  H        -1.2902542999        5.5700293220       10.9582551896
