140

  C        16.2366662127       -0.0347595621        2.5139646887
  C        17.3271475678        0.5858532454        3.1796831050
  C        18.3662783660        1.1962629419        2.4775767197
  C        19.5248646459        1.7193716009        3.0897056356
  C        20.5094224964        2.2917265294        2.3486546742
  C        17.2642305072        0.9605051670        4.6276145346
  C        16.3363748708        1.9527648942        5.0612186222
  C        16.2473018112        2.4169780026        6.3855604650
  C        17.1169691564        1.9112550214        7.3542739985
  C        18.1085279473        0.9374116757        6.9466231343
  C        18.1507054438        0.4880017030        5.6201737422
  H        19.5693199206        1.6664944911        4.1737218226
  H        21.2908590574        2.8095003484        2.9415421892
  H        15.7147788659        2.4334611867        4.3234392415
  H        15.4919202859        3.2174363371        6.6895807097
  H        17.0275969404        2.1803258166        8.4663170452
  H        18.8197454557        0.5780090440        7.7020266718
  H        18.9392627960       -0.2661027705        5.3889934823
  C        16.1355976146       -0.0129009808        1.0660203880
  C        15.0647104500       -0.6378924554        0.3365866279
  C        14.0707040945       -1.2449469873        1.0874731471
  C        14.1266007748       -1.3108682620        2.5676510023
  C        15.2831817136       -0.8013068703        3.2506375585
  C        18.2379743816        1.2998661277        1.0492874346
  C        17.1033812336        0.7922573593        0.4271211484
  C        16.9819362931        1.2164993982       -0.9860268839
  C        16.0184542128        2.1444181027       -1.4457886845
  C        15.8956932827        2.5359743452       -2.7980816579
  C        16.8251739133        2.0807628118       -3.7169419368
  C        17.8389062312        1.1649167963       -3.3383197434
  C        17.8689532124        0.7120210065       -2.0176844908
  H        18.6628488368        0.0045026019       -1.6382617362
  H        18.6041883803        0.7923303509       -4.0236702381
  H        16.8260804907        2.3981411022       -4.7775969322
  H        14.9894314465        3.0968449436       -3.0575459906
  H        15.4274021122        2.4389618976       -0.5457025059
  C        19.2576661376        1.9939972494        0.2768791842
  C        20.3406594776        2.4428537559        0.9091736296
  H        21.1138662021        2.8696883288        0.2664425059
  H        19.1442770422        2.1312628094       -0.7816202047
  C        15.4653509006       -1.1283754655        4.7052508534
  C        16.3263292492       -2.1274841871        5.2217618272
  C        16.2208898959       -2.5419808249        6.6079354493
  C        15.2696876625       -1.9460256151        7.4038372957
  C        14.3619601837       -0.9978755439        6.9221927945
  C        14.5340249018       -0.5479544569        5.5956473678
  H        13.9574380950        0.2385013822        5.2525483032
  H        13.5938356322       -0.6331422067        7.5421301304
  H        15.1140408819       -2.3000799794        8.4015158952
  H        16.9544917402       -3.3888714349        6.9890979127
  H        17.0452638263       -2.7000354958        4.5600456803
  C        13.1374094744       -2.1151681963        3.2802825111
  C        12.1063687355       -2.6910705508        2.6276898159
  C        12.0815785202       -2.7468539015        1.1744931151
  C        12.9989475285       -1.9754115474        0.4771824205
  H        12.9077475729       -2.0147772228       -0.6067046059
  H        11.2692792221       -3.2981995310        0.7048297749
  H        11.3930654592       -3.1965540691        3.2985706316
  H        13.1606590485       -2.1485512923        4.3724963561
  C        15.2904792013       -1.0499786606       -1.1153577645
  C        16.4436213785       -1.8970258564       -1.1298696122
  C        16.6955712998       -2.6886600056       -2.2685491202
  C        15.9035068033       -2.5333990052       -3.4111255460
  C        14.8131913129       -1.5987032056       -3.4010689745
  C        14.4544158411       -0.9210376971       -2.2403610775
  H        13.5885064653       -0.2309612633       -2.3138306118
  H        14.2105896654       -1.3924044648       -4.2840162796
  H        16.1074324980       -3.2532052815       -4.2670176928
  H        17.4859920042       -3.5096509025       -2.1695652149
  H        17.0815108912       -1.7628395358       -0.2660023076
  C        12.5213316562        6.9104447810        2.4897856086
  C        11.3810733106        7.3938993862        3.1578512116
  C        10.3101432381        7.9496487531        2.3896349875
  C         9.2195828546        8.6553603177        3.0765947132
  C         8.3125630990        9.3842971735        2.3769941023
  C        11.4900773911        7.9331917230        4.5562746322
  C        12.2432858595        9.1077611128        4.6952836129
  C        12.3640324698        9.7598191574        5.9261307731
  C        11.7858280415        9.2164349183        7.0699892524
  C        10.9572771628        8.1400401987        6.9527411679
  C        10.7640449188        7.5117032873        5.7289751246
  H         9.3291895760        8.6958965259        4.1495835766
  H         7.7315579265       10.1062903773        2.9508304143
  H        12.7550399274        9.5653422345        3.7850504554
  H        12.9176529743       10.6977601236        6.0427497268
  H        11.8669132406        9.7349359527        8.1114469458
  H        10.3975007563        7.7947594309        7.8004394241
  H        10.1548544474        6.5848507489        5.6627545796
  C        12.4845215059        6.7923925561        0.9952761421
  C        13.6372302829        6.1822498774        0.3467963752
  C        14.7962764055        5.8462099703        1.0742080093
  C        14.7898752401        5.9026429653        2.5562331030
  C        13.6266733439        6.4288301411        3.2117081816
  C        10.3736611636        7.9538266200        0.9365124962
  C        11.4633251093        7.4531928560        0.2658314350
  C        11.7234675574        7.9068155028       -1.0939002901
  C        12.5539124722        9.0560433871       -1.2053514071
  C        12.7845746574        9.6956025756       -2.4673021379
  C        12.1852130289        9.1633240017       -3.6025660324
  C        11.2971987298        8.0579079171       -3.4673492485
  C        11.0616514608        7.4592845518       -2.1988326907
  H        10.3840762661        6.5966830735       -2.1774980768
  H        10.8167151539        7.6471587011       -4.3276599017
  H        12.3171779986        9.5264097268       -4.5905801293
  H        13.2996025099       10.6720534937       -2.5216125650
  H        13.0117253078        9.3543627074       -0.2803593068
  C         9.2634464536        8.6635703955        0.2669598136
  C         8.3037580590        9.3694921377        0.9436383815
  H         7.5698292424        9.9147111434        0.3933091067
  H         9.2997327899        8.6292962192       -0.8294490650
  C        13.5514782422        6.1111244341        4.7094025261
  C        12.6575964864        5.0565716139        5.1615940516
  C        12.7287198112        4.6314739066        6.4946304891
  C        13.7980053534        5.0797010054        7.3692123940
  C        14.6317524536        6.1389457463        6.8994088213
  C        14.4612030419        6.7194347803        5.6188696443
  H        15.1590789370        7.4588325808        5.2436096297
  H        15.3604362442        6.5901017838        7.5234188272
  H        13.7305284701        4.7336510246        8.3942251639
  H        12.0542686880        3.8642001581        6.8101509531
  H        11.8871978144        4.6880606500        4.4898156710
  C        15.9265105747        5.3331736409        3.2158555596
  C        16.8985736532        4.7403549386        2.5229504803
  C        17.0208876193        4.8024633726        1.0738208143
  C        15.9750909618        5.4157988639        0.3943366822
  H        15.9938693068        5.4894569238       -0.7080732581
  H        17.9459726606        4.4882808699        0.5658902581
  H        17.5952507171        4.0703125922        3.0009913063
  H        16.0992304276        5.2873703499        4.3202856320
  C        13.6066669050        5.8225313288       -1.1469218537
  C        12.8878541795        4.6879026787       -1.5016034533
  C        12.7464668195        4.2648400687       -2.8474372056
  C        13.3621894826        5.0130583695       -3.8753990396
  C        14.1705484615        6.1148726905       -3.5809209746
  C        14.2672925995        6.5508770484       -2.1890142759
  H        14.9082745514        7.3732573601       -1.9195672500
  H        14.7445784340        6.6118323572       -4.2653423740
  H        13.2460522147        4.6842050221       -4.9090465960
  H        12.0696221967        3.4982867617       -3.1091020200
  H        12.4195066381        4.0898832655       -0.6996083607
