140

  C        15.3003788084       -0.7641830121        0.5769745237
  C        16.2310730652       -0.0521267856        1.3118345619
  C        17.3529507095        0.5119548766        0.6804351103
  C        18.5303719046        0.8730623937        1.3985424195
  C        19.4459952450        1.6820345440        0.8114825534
  C        16.1174509012        0.2826297413        2.7732342349
  C        15.3763860625        1.4781974114        3.1262902617
  C        15.3253314252        1.9879649802        4.4305949043
  C        15.8421234496        1.2158477019        5.4867211362
  C        16.6256358849        0.1042539414        5.1174965463
  C        16.7718369248       -0.3582739487        3.8002963955
  H        18.6994086992        0.6342604838        2.4446104759
  H        20.3140624184        2.1336625858        1.2968245334
  H        15.0590822642        2.2020837162        2.2931352609
  H        14.8437882907        2.9447892839        4.5580048433
  H        15.6541510046        1.4435060606        6.5519087721
  H        17.1420123900       -0.3779337847        5.9831425972
  H        17.3739783563       -1.1559682392        3.4775804625
  C        15.2944543579       -0.6991977318       -0.9196832409
  C        14.2777271563       -1.4217217944       -1.5880106986
  C        13.1452900169       -1.9420793531       -0.9157119581
  C        13.0974332892       -1.8773394283        0.5037611991
  C        14.2340805409       -1.3882972884        1.2708507003
  C        17.3173485227        0.6661039996       -0.7947011112
  C        16.3272355368        0.0623928951       -1.5687705915
  C        16.2210599248        0.4937813501       -3.0128195434
  C        15.2881956703        1.4906215105       -3.4407702512
  C        15.2204554954        1.9859617070       -4.6938655942
  C        16.0233803179        1.4967202807       -5.7319413225
  C        16.8423023330        0.4264453829       -5.3613959245
  C        16.9824901841       -0.0149686783       -4.0227820630
  H        17.5853416170       -0.8859832649       -3.9311908318
  H        17.4610755069       -0.1552117046       -6.1121645832
  H        15.8628921630        1.8821437489       -6.7330907377
  H        14.5258871478        2.8171102134       -4.8703703778
  H        14.6628637089        1.9405509001       -2.6728863311
  C        18.3765635803        1.3966038490       -1.4358938743
  C        19.3438304444        1.9304678739       -0.6246744757
  H        20.0712074391        2.6048651832       -1.0387977742
  H        18.4746895690        1.5292278869       -2.5502274992
  C        14.3426674481       -1.8958883894        2.6819866543
  C        15.2010092684       -2.9087815163        3.0736041687
  C        15.1744895707       -3.5141303126        4.3825422249
  C        14.4383868393       -2.9209148265        5.3990084168
  C        13.6086031323       -1.8540337084        4.9868459995
  C        13.5487398527       -1.3856715111        3.6506262449
  H        13.0100068999       -0.4806042477        3.5815567274
  H        12.9903071667       -1.4107722196        5.6947361752
  H        14.4078803845       -3.2586706848        6.4753170244
  H        15.9464222847       -4.2091174515        4.5724118640
  H        15.9579145987       -3.2527455597        2.2426860840
  C        11.9166405133       -2.4471329849        1.1373351140
  C        10.8885408792       -3.0428279067        0.4272705988
  C        10.9819239907       -3.1794484956       -0.9740150189
  C        12.1783451624       -2.7245547083       -1.5715211385
  H        12.3565815466       -3.0242807196       -2.6141148431
  H        10.3221935990       -3.7660202633       -1.6127896527
  H        10.0054606214       -3.3605148771        0.9446119712
  H        11.8098353044       -2.2584628822        2.2453624436
  C        14.3804404745       -1.7563385749       -3.0098002298
  C        15.1199969078       -2.8577939981       -3.4548868904
  C        15.1478053420       -3.2196815368       -4.8092939350
  C        14.3654656298       -2.5714025768       -5.7954364688
  C        13.5436411265       -1.5130412003       -5.3728809533
  C        13.5731858305       -1.1001323668       -3.9634363845
  H        13.0120274280       -0.1869084017       -3.6857908899
  H        12.7220496366       -1.2518059594       -6.1012220731
  H        14.4181429475       -2.9659164058       -6.8317999446
  H        15.8608339804       -3.8960793764       -5.1754585252
  H        15.7068651466       -3.4015623404       -2.7368532695
  C        11.4502594813        6.7377011460        0.7014706420
  C        10.4143646798        7.4746306209        1.3296049423
  C         9.4291598579        8.0808224888        0.5339727843
  C         8.2739813935        8.7081737875        1.1260328616
  C         7.3067135617        9.3329769563        0.3497851355
  C        10.4263256169        7.8633259643        2.8411563561
  C        11.0078806706        9.0951428163        3.1943634071
  C        10.8375809171        9.5953376368        4.5004622458
  C        10.0116781803        8.8630653247        5.4459965071
  C         9.4143243112        7.6736030710        5.0250893909
  C         9.6400705149        7.1812537671        3.7726338383
  H         8.2051269674        8.6119001282        2.1840238619
  H         6.3835386442        9.7098443015        0.8032898916
  H        11.4256674275        9.7257490591        2.4480307441
  H        11.3005128592       10.5317850644        4.9188523853
  H         9.9137493945        9.2222265189        6.4626109947
  H         8.7219693651        7.1327138481        5.7394744592
  H         9.0890503939        6.2792502908        3.3801137405
  C        11.5255533922        6.6070958378       -0.7568727436
  C        12.5847047655        5.8596341837       -1.3735739926
  C        13.6917351968        5.4185237442       -0.6534686949
  C        13.6357090084        5.4657841338        0.7869226909
  C        12.4753358528        6.0458806654        1.4923589650
  C         9.4697149690        7.9878964361       -0.9450480299
  C        10.5727224036        7.3693833449       -1.5457071293
  C        10.5570081568        7.6641392089       -3.0167118095
  C        11.4293214947        8.6961692851       -3.4551069345
  C        11.2280559344        9.2027359699       -4.7268193768
  C        10.2522136020        8.6897707682       -5.5896173453
  C         9.4364741092        7.5915718262       -5.1766917493
  C         9.6347768022        7.0680316777       -3.8883588189
  H         9.0448723699        6.2645422496       -3.5160624738
  H         8.8523513869        7.0764626079       -5.8842142377
  H        10.1286858167        9.1488501540       -6.5804267169
  H        11.8315305314       10.1170760689       -5.0473671459
  H        12.1596769325        9.1373211377       -2.7696207338
  C         8.4750365848        8.7809472316       -1.6750480147
  C         7.4091582563        9.4133598802       -1.0362469198
  H         6.7368109921       10.0580982086       -1.6371064690
  H         8.3594810602        8.6797882703       -2.7918281294
  C        12.3192494642        5.6703114383        2.9300764856
  C        11.5856204035        4.5226100178        3.3692026288
  C        11.5258652135        4.1062022298        4.7300019993
  C        12.2417775710        4.8349633470        5.7583467666
  C        13.0192768743        5.9055595031        5.2979357579
  C        12.9689191130        6.3786168392        3.9663796938
  H        13.4768702017        7.2915530853        3.6932984243
  H        13.6833778413        6.3201296031        6.0497624523
  H        12.2915455323        4.5339428341        6.8036663803
  H        10.8878640657        3.3591791468        5.0943008367
  H        10.8647351976        4.1375478374        2.7036789827
  C        14.6145912586        4.6832106755        1.5003834638
  C        15.7524085265        4.1846848250        0.8752022108
  C        15.8751940581        4.1731309849       -0.5038519335
  C        14.8802392189        4.7626647365       -1.2594326389
  H        15.0255921814        4.7700065734       -2.3611773287
  H        16.7259173215        3.6537267299       -0.9817807912
  H        16.3545392663        3.6387810414        1.4833717978
  H        14.5067277500        4.5235847159        2.5392820653
  C        12.6009436970        5.5991708317       -2.8331086069
  C        11.7831567678        4.7071828665       -3.4412027473
  C        11.9263867945        4.4622646979       -4.8456816944
  C        12.8959911836        5.1833402396       -5.5782034271
  C        13.7436386967        6.0383036413       -4.9078882596
  C        13.6071556368        6.3074953269       -3.5020315346
  H        14.1569651773        7.0499905484       -2.9270177925
  H        14.4811614145        6.6413891925       -5.4404105038
  H        13.0874205113        5.0347684187       -6.6244494965
  H        11.3002062606        3.9243372588       -5.4729502363
  H        10.9224043933        4.2608564790       -2.9535119536
