140

  C        14.5061595334        0.1365455051        1.6084094220
  C        15.4751876419        0.9033197914        2.3447505524
  C        16.6417957943        1.3479147821        1.7804488494
  C        17.7768978472        1.8805233123        2.5176810704
  C        18.8645169078        2.4042289024        1.7987123909
  C        15.3754194438        1.2174302798        3.8130671091
  C        14.4556678093        2.1897221402        4.3333448456
  C        14.3758889272        2.3763801727        5.7071644694
  C        15.3016703346        1.8391541845        6.6749611970
  C        16.1671025687        0.9090976614        6.1467139406
  C        16.2194401803        0.6397481862        4.7701534912
  H        17.9088847428        1.8060519678        3.5646294707
  H        19.6752173407        2.8708378523        2.3779479551
  H        13.8308376697        2.6772994025        3.6068228585
  H        13.6694485642        3.0978432013        6.0487734914
  H        15.3555556168        2.0818044203        7.7641117011
  H        16.8482380091        0.3180832608        6.8208325391
  H        16.9619803369       -0.1042200094        4.4971696964
  C        14.6341776611        0.0775046463        0.1688476114
  C        13.6232083168       -0.4751812894       -0.6484988002
  C        12.5352196310       -1.0560145453       -0.0532700820
  C        12.5313875841       -1.2169138321        1.3939833949
  C        13.5149613604       -0.6427350678        2.2039870115
  C        16.7491036310        1.3737331748        0.3459148387
  C        15.6881340444        0.8120808938       -0.4659822002
  C        15.7497115901        1.1458212586       -1.9111819185
  C        14.9359524749        2.1592002408       -2.5220096101
  C        15.1060587838        2.6411504013       -3.8274644054
  C        16.1395466536        2.2148922043       -4.6600940641
  C        16.9593185464        1.2443969735       -4.1123346585
  C        16.7392141872        0.6711606432       -2.8180115016
  H        17.4306960894       -0.1302889889       -2.5453490476
  H        17.7468431203        0.8687026205       -4.7193364635
  H        16.3719944617        2.4611058565       -5.6979531205
  H        14.3571986039        3.3739016489       -4.1835259992
  H        14.1414712719        2.6879017641       -1.9466231157
  C        17.8735463660        2.0464928006       -0.3204657974
  C        18.8084101056        2.6591767634        0.4124620085
  H        19.6397877678        3.0936805462       -0.1414273493
  H        17.7142816472        2.1563279548       -1.3826635916
  C        13.4809802387       -0.9987655798        3.6575213059
  C        14.1777850995       -2.1105699816        4.0538240173
  C        14.0081848966       -2.5809737374        5.3634837479
  C        13.1620020065       -1.8710602916        6.2616830499
  C        12.5517301557       -0.7158257344        5.8912889924
  C        12.6231006989       -0.3179433936        4.5501868267
  H        12.0744424425        0.5916338370        4.3249691438
  H        11.8445092315       -0.0354613872        6.4817484565
  H        13.1348283041       -2.1608663512        7.3751926868
  H        14.4370523998       -3.4866684416        5.7211879530
  H        14.7138855524       -2.6521737367        3.3448557525
  C        11.3858823561       -1.9453961350        2.0311879966
  C        10.4920014353       -2.5680062244        1.2106402640
  C        10.5400045778       -2.4333331693       -0.2570007875
  C        11.5743883194       -1.7954465084       -0.8681524691
  H        11.5615172156       -1.7277588006       -1.9732195987
  H         9.7381206025       -2.8794885894       -0.8092362995
  H         9.6840699218       -3.0802007349        1.7040203736
  H        11.3787524813       -2.0854063711        3.1289765471
  C        13.7650295350       -0.8531987813       -2.1048108284
  C        14.7462905526       -1.7936072592       -2.4387839773
  C        14.7404885940       -2.5098800271       -3.6135563588
  C        13.9288446826       -2.0392094924       -4.6601095478
  C        13.1022385747       -0.9686807271       -4.3953822287
  C        13.0139381547       -0.3279514879       -3.1545903708
  H        12.3260907014        0.4945215270       -3.0532990731
  H        12.4286979747       -0.6483354036       -5.1767972596
  H        13.8919283645       -2.3696667449       -5.6907714906
  H        15.3747033110       -3.4136333946       -3.7451594848
  H        15.3364614863       -2.2003542861       -1.6508167621
  C        11.3685155888        7.2824032181        1.7503454014
  C        10.2188725957        7.8442657849        2.5125027220
  C         9.1262626434        8.3683608929        1.8041418412
  C         7.9730043234        8.8809158061        2.4459302649
  C         6.8724543343        9.4847892890        1.7710729394
  C        10.3033411541        8.1458989215        3.9554552024
  C        10.8238875012        9.2983251703        4.4588406348
  C        10.7492868721        9.7140961175        5.8363981199
  C        10.0402486213        8.9653451095        6.7764634151
  C         9.4983939631        7.7396213278        6.2848064064
  C         9.6102273421        7.3641290321        4.9253239728
  H         7.8917365104        8.7906535355        3.5562733108
  H         5.9612045846        9.7777462818        2.3117126548
  H        11.2627900195        9.9094341888        3.7223915622
  H        11.1061210417       10.6951144714        6.0316499324
  H         9.9826777522        9.2713326358        7.7932461281
  H         8.7850679716        7.2022697700        6.9087771792
  H         9.1285852167        6.4446799692        4.7259171394
  C        11.2783038475        7.3793666646        0.2826033041
  C        12.2636482995        6.6301793595       -0.4716461768
  C        13.3304486774        5.9959286152        0.2048186081
  C        13.4646111804        6.0620096547        1.6221545885
  C        12.3850587843        6.5567086518        2.3448166964
  C         9.1472292057        8.4810701012        0.3831202008
  C        10.2522646309        8.0982048457       -0.3538780051
  C        10.2482332917        8.4335553138       -1.7464744728
  C        11.1918305928        9.3130685292       -2.2516231627
  C        11.1837972920        9.6413425857       -3.5825711878
  C        10.0994105955        9.2421083385       -4.3970050060
  C         9.1918954568        8.2828450339       -3.9682906722
  C         9.2631750370        7.8680985254       -2.5899564699
  H         8.6773624145        7.0378917660       -2.2650849746
  H         8.4701866545        7.8865347192       -4.6756171657
  H        10.1136505147        9.6916624971       -5.4806922331
  H        11.8876259923       10.3717253449       -4.0580771632
  H        11.9852019963        9.6884320781       -1.6068228013
  C         8.0980602271        9.2346033676       -0.2661773796
  C         6.9567672506        9.6789237187        0.3318008106
  H         6.1536938454       10.1840139387       -0.2766394511
  H         8.1513071487        9.3920470252       -1.3083616515
  C        12.2413023423        6.2017674819        3.7623211311
  C        11.5834412771        4.9908784600        3.9829089306
  C        11.3025844101        4.5881786432        5.2953878869
  C        11.9796681895        5.2671936790        6.3745150077
  C        12.7882194100        6.3624439289        6.1111612164
  C        12.7519729706        6.9360547047        4.8777976565
  H        13.2139469000        7.9032813971        4.7766164745
  H        13.2397806199        6.8800536174        6.9355406852
  H        11.7977632912        4.9337220024        7.3775649528
  H        10.8005518254        3.6482437358        5.5250204169
  H        11.1333932475        4.4324574496        3.1570576738
  C        14.5867735285        5.4369084501        2.2512153302
  C        15.5147432176        4.7135918654        1.5310388149
  C        15.3487130435        4.5751231634        0.1913615295
  C        14.3654901738        5.2517345594       -0.5389665444
  H        14.2536127188        5.1987960946       -1.6304858694
  H        16.0144097435        3.9145150666       -0.3604546851
  H        16.3374830531        4.2996228028        2.0576329234
  H        14.7022741273        5.6475329439        3.2895222962
  C        12.1733150727        6.2868877193       -1.9455789580
  C        11.3169479583        5.2663958675       -2.2829289653
  C        11.2581967453        4.7255977071       -3.5109709129
  C        12.0699714567        5.2560995583       -4.5018581677
  C        12.9447823706        6.3655954324       -4.2208604199
  C        12.9912191133        6.8558712197       -2.9055536624
  H        13.7438704351        7.6525765329       -2.6369588312
  H        13.5626093670        6.6735297604       -5.0092803034
  H        12.0611921732        4.8608511942       -5.5248868224
  H        10.5749101094        3.8908189311       -3.6885209670
  H        10.7531300504        4.8344675745       -1.4685374184
