140

  C        13.7388212980        0.3748384268        1.0437445745
  C        14.8044307733        1.0669923266        1.7255890110
  C        15.9423430439        1.5450571658        0.9787677716
  C        17.0886930246        2.1447387968        1.6209627162
  C        18.1828125831        2.6762326143        0.9017967006
  C        14.7312505950        1.3370129268        3.1926044042
  C        13.7091953277        2.1869065540        3.7140625488
  C        13.7138206453        2.6370003157        5.0106452017
  C        14.6333307685        2.1277060759        5.9060411410
  C        15.6122757454        1.2444297260        5.4449249930
  C        15.6816660282        0.8376065544        4.1279109006
  H        17.1085178698        2.2373762469        2.7174475086
  H        19.0725476171        2.9814322094        1.4658007053
  H        12.9709793051        2.6236721933        3.0686491865
  H        13.0337975778        3.3923667306        5.4094568719
  H        14.7613466241        2.4229334352        6.9807483277
  H        16.4083909018        0.8631032111        6.1032757926
  H        16.5478328824        0.2606234227        3.8082707348
  C        13.7366067838        0.2938437359       -0.4540227157
  C        12.6558326160       -0.4094567914       -1.0762147012
  C        11.5542067896       -0.9056098602       -0.2906435308
  C        11.6348851194       -0.9691487492        1.1407386779
  C        12.7581348899       -0.4078948451        1.8005861616
  C        15.8999065201        1.5270156560       -0.4747088458
  C        14.7648035296        1.0683501772       -1.1533202252
  C        14.7681726856        1.4160476259       -2.6129270212
  C        13.8865057560        2.4221003932       -3.1575743952
  C        14.2887323761        2.8455731956       -4.4201949003
  C        15.2863999856        2.2709998897       -5.2172472912
  C        15.9925532475        1.1743338886       -4.7217620188
  C        15.6426502136        0.7190456575       -3.4300399476
  H        16.1894169840       -0.1382287404       -3.0306315153
  H        16.6339407831        0.6251054536       -5.3813339218
  H        15.4250515212        2.7205045682       -6.2050194311
  H        13.7552595564        3.7074117196       -4.8711088044
  H        13.0328897916        2.7672154515       -2.6007108013
  C        17.0186697457        2.1309707031       -1.1261754765
  C        18.1617742120        2.6286214178       -0.5099929601
  H        18.9821409878        3.0497601970       -1.1300346642
  H        17.0098699155        2.2308604177       -2.1974988722
  C        12.8848744450       -0.7961608712        3.2618908706
  C        13.8320447299       -1.6728945328        3.6767309641
  C        13.8589164583       -2.0161907565        5.0609602600
  C        12.8742260200       -1.6612190223        5.9465904279
  C        11.8755743790       -0.8115953032        5.4605622756
  C        11.9406174833       -0.3674063108        4.1681394891
  H        11.0668462797        0.2545441352        3.9590547482
  H        11.0737940474       -0.4623437809        6.0564488543
  H        12.7795209835       -2.1148534029        6.9497739283
  H        14.5862579020       -2.7582850482        5.3989669425
  H        14.4571449755       -2.1411971351        2.8735977424
  C        10.5777071182       -1.6819478201        1.7992915258
  C         9.4483637109       -2.1208505981        1.1118375511
  C         9.4226277808       -2.0933629890       -0.2971298450
  C        10.5379375068       -1.5597217194       -0.9974131568
  H        10.6114491488       -1.8391381417       -2.0554869357
  H         8.5948734166       -2.4585681726       -0.8866279861
  H         8.6508456114       -2.5666904426        1.7131886468
  H        10.6633726724       -1.6959620150        2.8616515807
  C        12.6283655981       -0.7360512724       -2.5872849019
  C        13.3593414255       -1.8235998536       -3.1667158963
  C        13.2535218193       -2.1674398089       -4.4995348476
  C        12.4126628357       -1.5450912686       -5.3952373443
  C        11.7661107905       -0.4043146141       -4.9134086831
  C        11.7990467941       -0.0201439762       -3.5569587881
  H        11.2969821483        0.9047376414       -3.2361123630
  H        11.0817519876        0.1283611330       -5.5645857310
  H        12.3331344700       -1.9580685194       -6.4032084013
  H        13.7711308678       -3.0332616344       -4.8833306755
  H        14.0352614112       -2.5295846240       -2.6500210058
  C        10.0819188641        7.5192164673        1.2193635098
  C         9.0257599831        8.1392342593        1.9171275172
  C         7.9060976434        8.6498675663        1.2314994095
  C         6.8534932586        9.3020784928        1.8814862283
  C         5.8065821067        9.8766305161        1.2629781583
  C         9.1371118468        8.5049584549        3.3612787509
  C         9.9678233637        9.5724955070        3.6813904818
  C        10.0584054974        9.9769011074        4.9904595250
  C         9.1584086592        9.5348571067        5.9440601305
  C         8.2065203464        8.5662934508        5.6460603417
  C         8.2370334306        7.9701618655        4.3572131834
  H         6.9053775604        9.5108454312        2.9836399857
  H         5.0490202399       10.3393181694        1.8472851702
  H        10.6167490106        9.9203119265        2.8538072664
  H        10.7420043502       10.6927485168        5.3133670823
  H         9.2167060738        9.9987717398        7.0159435354
  H         7.5299072915        8.1769726537        6.3939663701
  H         7.7510026102        7.0388724589        4.1831609665
  C        10.1090464925        7.4592855019       -0.3339696338
  C        11.2062119437        6.8643932671       -1.0932316554
  C        12.1745266677        6.2393484386       -0.3111105323
  C        12.1353325163        6.2934216465        1.1513328105
  C        11.0928987303        6.8981051843        1.9403848052
  C         7.9575912901        8.7252342591       -0.2400807366
  C         9.0832342363        8.1781882125       -0.9839900645
  C         9.0403340834        8.4877555599       -2.5270403018
  C         9.6993094387        9.5964229619       -3.0025842241
  C         9.6779927904        9.8734771428       -4.4103952163
  C         8.8421897352        9.0920917866       -5.2248922491
  C         8.1328367551        7.9691185025       -4.6612297139
  C         8.2615168652        7.6822120100       -3.3418048068
  H         7.5964730522        6.8348585340       -2.9029988260
  H         7.4263000612        7.3793112307       -5.2249808327
  H         8.6012455283        9.2888665394       -6.2644618574
  H        10.3369623092       10.6585584830       -4.7815166789
  H        10.3936934947       10.1741071695       -2.4118950815
  C         6.9607780071        9.5325932472       -0.8545229287
  C         5.8870211509       10.0097154433       -0.2046422951
  H         5.2189545466       10.5860509479       -0.8180227529
  H         7.0811618922        9.7580931781       -1.8893525668
  C        10.9764774569        6.3678212322        3.3968466808
  C         9.9942609881        5.4161076872        3.6984066088
  C         9.9207433927        4.8977693569        4.9931020902
  C        10.7055961472        5.3345350820        6.0093942766
  C        11.7043308992        6.2620387516        5.7787229470
  C        11.8064173951        6.9169914740        4.4960185592
  H        12.5656226728        7.6461213579        4.2609339145
  H        12.3745236431        6.6984662869        6.5627500898
  H        10.5926253250        4.7342193239        6.9138142962
  H         9.1664268466        4.1182324881        5.1616169364
  H         9.3952658386        5.1154183029        2.8279318921
  C        13.2013268808        5.6046505827        1.8863328459
  C        14.0708525957        4.8661014960        1.1949441971
  C        14.1943728270        4.8819041966       -0.2944851358
  C        13.2461460319        5.5866451499       -0.9969797442
  H        13.2559172141        5.7889723162       -2.0387908936
  H        15.0667760099        4.3432741454       -0.6582129981
  H        14.7922041307        4.2422543200        1.7454561831
  H        13.3554446665        5.6610194753        2.9687192228
  C        11.1119287612        6.5793965082       -2.5439207254
  C        10.3367931210        5.4930130630       -3.0573424920
  C        10.2341377485        5.3226925337       -4.4392417597
  C        11.0596185553        6.0707806879       -5.2927789920
  C        11.9871504687        6.9393515879       -4.7547127829
  C        11.9552539974        7.3262335451       -3.3812052066
  H        12.6775252938        8.0119958091       -3.0562588599
  H        12.5556967476        7.5236599258       -5.4282747241
  H        10.9744686247        5.8672603887       -6.3800907156
  H         9.5331774799        4.5782188240       -4.8383512265
  H         9.7482311537        4.9378088623       -2.3583725999
