140

  C         3.8816913818        0.0532745868       15.1515537282
  C         4.9629918482        0.6886671021       15.8664174921
  C         6.0019119282        1.3230021905       15.2317051965
  C         7.0308241752        1.9970451132       15.9592108896
  C         8.0045672630        2.6120681571       15.2873409692
  C         4.8142446031        1.0435783613       17.3855167493
  C         4.0832668385        2.2345014308       17.6335070138
  C         4.0584347686        2.7348286233       18.8969042734
  C         4.7752755515        2.0857250757       19.9353632936
  C         5.4909821959        0.9160892346       19.6254110675
  C         5.5136468371        0.3850126917       18.3309050697
  H         6.9434273959        2.1631372900       17.0505416119
  H         8.7542353881        3.2077465043       15.7955065691
  H         3.7839766207        2.7723876062       16.7358104076
  H         3.5379946558        3.6659273785       18.9733529985
  H         4.7742971955        2.3948739205       21.0226273646
  H         6.0651385151        0.3392924709       20.3670029575
  H         6.1016953666       -0.4896998972       18.0495298893
  C         3.8832621821        0.0615579805       13.6788572264
  C         2.8549222802       -0.6792959932       12.9932964018
  C         1.7625509760       -1.1957447063       13.7145114269
  C         1.7693531312       -1.1720579631       15.1406314791
  C         2.8541837033       -0.6357673620       15.9213015049
  C         6.0866475784        1.2372985635       13.7283549662
  C         5.0192558792        0.7111189335       13.0067985293
  C         5.0030697802        1.0537299391       11.5454170204
  C         4.2396867616        2.1060880161       10.9744397642
  C         4.2329110783        2.4012815743        9.5813687161
  C         4.9828380251        1.6112408558        8.7295349978
  C         5.8021310939        0.5695690748        9.2939478571
  C         5.8677340842        0.2976646243       10.6742116466
  H         6.4379376446       -0.5453697896       11.0316825217
  H         6.4885431876        0.0173131568        8.6034307745
  H         4.9799807925        1.8752308819        7.6741151866
  H         3.8093514299        3.2975790891        9.1365018098
  H         3.5243641991        2.6234172972       11.6234155956
  C         7.1512182249        1.9574908908       13.0228662608
  C         8.0416627122        2.6522115947       13.8234722651
  H         8.8032745617        3.2976065517       13.3669956288
  H         7.2662516823        1.9238138664       11.9321198272
  C         2.9134381703       -0.9419606974       17.3807095209
  C         3.5812431355       -2.1467340985       17.8968115171
  C         3.4949547986       -2.4668492312       19.2784650380
  C         2.9013844145       -1.6025438030       20.1728443485
  C         2.2099291774       -0.5079475034       19.7004312869
  C         2.1633734742       -0.1747448481       18.3279359457
  H         1.5929961922        0.6590674410       18.0165653777
  H         1.7011349903        0.1661567227       20.3363182592
  H         2.8998964479       -1.9162035182       21.2008124108
  H         3.9714469727       -3.4533407378       19.5127335819
  H         4.1872870814       -2.8093974141       17.2971818824
  C         0.6229184977       -1.7069607057       15.8479811548
  C        -0.3718131783       -2.3224769630       15.2073504204
  C        -0.3385552970       -2.3868481244       13.7629128694
  C         0.7826451737       -1.9597198757       13.0648389174
  H         0.8713882332       -2.1912898909       11.9823913638
  H        -1.1526057489       -2.8596198058       13.2221626836
  H        -1.1947313001       -2.7765392683       15.6902830612
  H         0.6291837240       -1.6458575067       17.0065026961
  C         2.9568405245       -1.1784600352       11.5415692924
  C         3.8086021892       -2.2476443780       11.1577774840
  C         3.8667557306       -2.5924518005        9.8018365536
  C         3.1244607181       -1.9296139303        8.8078136446
  C         2.1270129296       -1.0368453022        9.2157790492
  C         2.1721968314       -0.6250694748       10.5248843647
  H         1.6483070839        0.3326476042       10.7902710727
  H         1.5431330642       -0.4883243247        8.4572729687
  H         3.2949589348       -2.2105866621        7.7162977541
  H         4.5175351705       -3.4187224858        9.5271930136
  H         4.3540283903       -2.8490459409       11.9264543388
  C         0.2967244823        7.2421519164       15.3384501106
  C        -0.6813753095        8.0463512389       15.9970544913
  C        -1.6798259412        8.7691705192       15.2892393612
  C        -2.7793126502        9.4218158954       15.8764699572
  C        -3.6983877045       10.0855956280       15.1289584416
  C        -0.6449210993        8.3772519910       17.4750892300
  C         0.1831852730        9.3914189823       17.9154743860
  C         0.1753086612        9.7826505726       19.2660012198
  C        -0.6180019076        9.0928529410       20.2060624239
  C        -1.3681431989        8.0153796205       19.7276120049
  C        -1.4487902204        7.6628897313       18.4295146095
  H        -2.8205422662        9.3663844698       16.9393159362
  H        -4.4475667815       10.6426516852       15.6759627939
  H         0.8006490241        9.9701394411       17.2285900279
  H         0.7228380573       10.6614893786       19.5830127341
  H        -0.5357036535        9.3643924144       21.2581449794
  H        -2.0480047612        7.5074702284       20.3753620536
  H        -2.0878609470        6.8197128381       18.1805630564
  C         0.3722006114        7.3601554515       13.8853270385
  C         1.3597722768        6.5899224659       13.1062570983
  C         2.4917436273        5.9704813711       13.8145560094
  C         2.4331642705        5.8884510538       15.2983585467
  C         1.3109298008        6.4469619079       16.0036909039
  C        -1.5884787612        8.8613508776       13.8684024700
  C        -0.5297679593        8.2057423223       13.2019665452
  C        -0.4332988485        8.4994690185       11.7821862256
  C         0.5865877401        9.2795682696       11.2019504494
  C         0.5014101953        9.5410823592        9.8122631296
  C        -0.5512659531        9.1066871428        9.0165222439
  C        -1.4842248473        8.2051147672        9.6016992472
  C        -1.3978664429        7.8858424762       10.9349050507
  H        -2.1536612330        7.2474551193       11.4348491788
  H        -2.1792979729        7.6774246843        8.9806489118
  H        -0.4804886537        9.4350156931        8.0098982945
  H         1.3432524618       10.1625188950        9.4593654537
  H         1.3809584910        9.7677308241       11.7637058490
  C        -2.5280362689        9.5985106559       13.1233858396
  C        -3.6618401000       10.1279687626       13.6988708917
  H        -4.4258796909       10.5521685147       13.0519129212
  H        -2.3968290965        9.6268855294       12.0361791407
  C         1.3220232347        6.0933796382       17.4332609482
  C         0.9449346482        4.8165862819       17.8870818277
  C         1.1820097218        4.3989430336       19.1938694075
  C         1.8356477425        5.2544879532       20.1147570787
  C         2.1662372187        6.5587138888       19.6692840649
  C         1.9357251129        6.9814082273       18.3499036684
  H         2.3708631350        7.9604450528       18.0398797082
  H         2.5533001482        7.2822825513       20.3355594118
  H         1.9907801430        4.9427990479       21.1576983605
  H         0.7457970142        3.4624392405       19.4968061837
  H         0.4937147786        4.1558425156       17.2039243991
  C         3.5896958244        5.3754014940       15.9972797426
  C         4.7263879492        4.9586704454       15.2946259216
  C         4.7363188608        4.9296399927       13.8924881559
  C         3.6537314193        5.4033354356       13.2102799520
  H         3.6343744886        5.3707652089       12.1043677183
  H         5.6270321513        4.5584355893       13.3212917554
  H         5.6503780917        4.7028854585       15.7683975230
  H         3.6375173432        5.3018564513       17.0628777273
  C         1.3262237310        6.2287736678       11.6388379763
  C         0.3493874079        5.3093014135       11.3078887718
  C         0.1798534527        4.8646496038        9.9976579474
  C         0.9953469100        5.3450316092        9.0078700370
  C         2.0466621310        6.2730473898        9.3180140423
  C         2.2029681523        6.7314916695       10.6749653050
  H         2.9749324495        7.3914464292       10.9862288609
  H         2.6949897643        6.6058549482        8.5549518542
  H         0.8429751932        4.9789731711        8.0235268524
  H        -0.6338151375        4.2049086528        9.7263231592
  H        -0.1169106712        4.9058457760       12.2054957514
