140

  C        15.5392648093       -1.0673142716        0.4337840849
  C        16.6169615204       -0.5245218697        1.1309013218
  C        17.7166754460       -0.0421263058        0.3995920288
  C        18.8023593230        0.4911988173        1.1266147461
  C        19.9513925350        0.9946692250        0.4997552332
  C        16.5122529640       -0.1984029038        2.5816591102
  C        15.7581303157        0.8992147635        3.0073923205
  C        15.7958544047        1.4088526597        4.2865275635
  C        16.5875945476        0.8337613358        5.3279098062
  C        17.3736496314       -0.2700527005        4.9407269523
  C        17.3041182337       -0.7576724029        3.6302234355
  H        18.7538553135        0.5965980854        2.2049620250
  H        20.7063532198        1.4704953510        1.1154535467
  H        15.0914429197        1.3206682392        2.2113656113
  H        15.0991438328        2.1732055818        4.5877625642
  H        16.7147657837        1.2173953172        6.3543481670
  H        18.0329533987       -0.7071468817        5.7212167407
  H        17.9289821473       -1.5542394718        3.2406066942
  C        15.5926316436       -1.0979997612       -1.0230925120
  C        14.6894849350       -1.8725597877       -1.7033965070
  C        13.6098925738       -2.5151228825       -1.0681046432
  C        13.5600816973       -2.5407788741        0.3575574839
  C        14.5100489781       -1.8157366268        1.1148140047
  C        17.8445172916       -0.0608719797       -1.0753945198
  C        16.7231549760       -0.5176850556       -1.7804740751
  C        16.6355844373       -0.2094019051       -3.2473139589
  C        15.6730585137        0.7189968322       -3.8394431173
  C        15.7212883969        1.0250288775       -5.2332484405
  C        16.6474216992        0.4165979064       -6.1085560362
  C        17.5100635276       -0.4896036940       -5.5595516922
  C        17.5032569217       -0.7859765786       -4.1627550519
  H        18.2278575413       -1.5107065021       -3.8476585089
  H        18.1927250664       -1.0007142565       -6.1976020551
  H        16.6444952320        0.6234705709       -7.1765514954
  H        15.0712342782        1.7805234814       -5.6303248699
  H        14.9679690690        1.1199978062       -3.1889252817
  C        19.0363231619        0.4707915049       -1.6734089176
  C        20.0524263097        0.9906803235       -0.8781988738
  H        20.9068331810        1.3561417171       -1.2858429123
  H        19.1503139333        0.4515964401       -2.7154134885
  C        14.5241660342       -2.1156469160        2.5514076768
  C        15.2871005923       -3.2334289283        2.9700761617
  C        15.3983549240       -3.6079485059        4.3217311351
  C        14.6646378582       -2.9685029603        5.2998610302
  C        13.8224002377       -1.9349707399        4.8354764643
  C        13.7203642989       -1.5218431197        3.5497556859
  H        13.1250849570       -0.6389887477        3.3537754721
  H        13.1427444470       -1.5551496655        5.6376380567
  H        14.6815409608       -3.1831734920        6.3603340955
  H        16.0165474616       -4.5484795780        4.5923377897
  H        15.8838833118       -3.8443138291        2.2610655678
  C        12.4987216175       -3.2669302817        1.1104387809
  C        11.4629267544       -3.7288938384        0.3945700605
  C        11.5654900920       -3.7813588739       -1.0583886165
  C        12.5633447762       -3.2157021030       -1.7905789246
  H        12.6867361843       -3.4932883476       -2.8175514838
  H        10.7916222768       -4.3983004027       -1.5321598707
  H        10.6512487861       -4.2833971204        0.9560069970
  H        12.4844581891       -3.4174905046        2.1770652238
  C        14.7285320227       -2.2220130665       -3.1933665370
  C        15.4160691016       -3.3841629521       -3.4570539596
  C        15.3813298209       -3.9599169430       -4.7514449531
  C        14.6122114626       -3.4496576606       -5.8162040004
  C        13.7675692033       -2.3237796550       -5.4667423439
  C        13.8288904440       -1.6957119989       -4.2145144692
  H        13.1851204314       -0.8560310993       -3.9528994479
  H        13.1055545200       -1.8908519116       -6.1717897212
  H        14.4893449482       -3.8379202098       -6.8018087053
  H        16.0240131272       -4.8144176488       -4.9615435650
  H        15.8712208720       -3.7863496553       -2.4929363198
  C        11.8432034627        5.8379184764        0.5248151231
  C        10.7959599474        6.5202511331        1.1838988514
  C         9.7441197107        6.9741613364        0.4836920893
  C         8.7865894717        7.7628388942        1.1325572014
  C         7.6604820343        8.2417940898        0.4816666896
  C        10.9646876841        7.0766255052        2.5583911986
  C        12.0190841219        8.0306226096        2.6881114336
  C        12.2774335831        8.6105626927        3.9304718243
  C        11.4230337920        8.3632787333        5.0479486804
  C        10.3851221834        7.3819415285        4.8746528953
  C        10.1152144136        6.7421950661        3.6538881779
  H         8.8629594505        7.8485676760        2.1745537845
  H         6.7805363858        8.5390346704        1.0837915137
  H        12.6806357419        8.2354083436        1.7946366914
  H        13.1166271526        9.1612869542        4.1514850212
  H        11.6049431741        8.8900806491        5.9713192612
  H         9.6169333998        7.2534590855        5.7405090456
  H         9.3730620695        5.9405447468        3.5561421231
  C        11.8474776656        5.7829347711       -0.9688883100
  C        12.9321781211        5.1226892665       -1.6523911490
  C        13.9975542201        4.5794289765       -0.8892053517
  C        13.9886145303        4.6414605046        0.5949611724
  C        12.8825557961        5.1256999955        1.2671251339
  C         9.6942193737        7.0340855863       -0.9712129375
  C        10.8285719812        6.5587001440       -1.6459929440
  C        10.8807702101        6.8437857175       -3.1123906488
  C        11.7626168748        7.8526777439       -3.5396939382
  C        11.7401738488        8.2674380800       -4.8462269606
  C        10.8483448435        7.7652414150       -5.7918051758
  C        10.0003987666        6.7352094795       -5.4050466257
  C        10.0114232190        6.2703581002       -4.1429080995
  H         9.3252033258        5.4816950813       -3.8041968806
  H         9.2337295456        6.4586424964       -6.1072244174
  H        10.8151059995        8.0937222244       -6.8065058372
  H        12.2256666088        9.2135648276       -5.1499881407
  H        12.3977305913        8.3178419214       -2.7499846782
  C         8.6131450540        7.6528707431       -1.6306881975
  C         7.5505874454        8.1431849609       -0.9162771673
  H         6.6362306604        8.4709788557       -1.3952977736
  H         8.4657904373        7.4698895114       -2.6492480561
  C        12.7394764983        4.8221138187        2.7497510261
  C        11.9363502300        3.7106867280        3.1107032768
  C        11.8722835420        3.2820199610        4.4217850554
  C        12.7106659975        3.8544228745        5.3373775519
  C        13.5940374169        4.9502349293        5.0333433549
  C        13.4861782479        5.4781122623        3.7301702975
  H        14.0536067801        6.3579670943        3.4610774888
  H        14.2280458346        5.3497934808        5.8222075748
  H        12.6802284331        3.4564160421        6.3481357709
  H        11.2954882707        2.4295518607        4.7757254786
  H        11.2643336812        3.3733450822        2.3095124628
  C        15.0639145977        3.9601490443        1.2251974510
  C        16.1252851579        3.3145536336        0.5885066140
  C        16.0868813145        3.2619793819       -0.8509046405
  C        15.0783056813        3.8773658628       -1.5248025481
  H        15.2004346927        3.8386614585       -2.6006426616
  H        16.9111183324        2.7221291513       -1.3304205340
  H        16.9089932239        2.6714177662        0.9914553949
  H        15.1574057823        3.8481937857        2.3229893726
  C        12.9923934700        4.8405727857       -3.1314809140
  C        12.0832912871        3.9048073040       -3.6663328084
  C        12.0899062712        3.5601448528       -5.0078114383
  C        13.1127830533        4.0098943092       -5.8464693662
  C        14.0487100906        4.9415386576       -5.3675533205
  C        13.9036492822        5.3865914163       -4.0143126069
  H        14.5766092331        6.2120591629       -3.7686612884
  H        14.7748970668        5.5132611834       -5.9513739138
  H        13.2668974838        3.5971039646       -6.8733260692
  H        11.3428270391        2.9431403184       -5.4105369557
  H        11.3517599466        3.4601856872       -2.9763356348
