140

  C         4.4631059851       -1.3090571334       14.0484585340
  C         5.5695726306       -0.6933163586       14.7113950198
  C         6.6686720058       -0.1870975198       13.9835137982
  C         7.7626933025        0.4831488008       14.7077438277
  C         8.7625532303        1.1379774976       14.0577663471
  C         5.4924509309       -0.4457672107       16.2121008015
  C         4.8125935827        0.6684629290       16.7924510349
  C         5.0165435463        1.0046343500       18.1172414172
  C         5.9629581600        0.3399519299       18.8655837705
  C         6.8157225747       -0.5966574814       18.2548060438
  C         6.5420035045       -1.0105764944       16.9410000580
  H         7.7100353717        0.4173587859       15.7736665926
  H         9.6079682541        1.5391862184       14.5470336178
  H         4.1105218780        1.2176855349       16.2583612913
  H         4.4529893244        1.8940583384       18.4847187085
  H         6.0917825336        0.6593239468       19.8924643402
  H         7.6506457652       -1.1665151934       18.8209086976
  H         7.0026748326       -1.9364222695       16.4406965030
  C         4.5678447932       -1.4123578620       12.5445749059
  C         3.5617458491       -2.1466761036       11.8901804312
  C         2.5128536906       -2.7337170733       12.5544205841
  C         2.3588372973       -2.6297822616       13.9849706925
  C         3.4858054516       -2.0653904232       14.7175052171
  C         6.6090369019       -0.0668476467       12.5463014607
  C         5.5502708321       -0.6388776601       11.7932208988
  C         5.4084137815       -0.3160364130       10.3208704391
  C         4.5338916603        0.6729532050        9.8052400894
  C         4.5603066251        1.0568071201        8.4276141654
  C         5.5561582973        0.4416090039        7.6502750496
  C         6.5115791759       -0.4174947556        8.1685226404
  C         6.4098127432       -0.8697470151        9.4812334927
  H         7.1182904899       -1.6192483227        9.8211755526
  H         7.3610388455       -0.6855767016        7.5474002258
  H         5.7452807965        0.7723197636        6.6443382563
  H         3.8992247147        1.7900849902        7.9336509462
  H         3.8629624194        1.1405963063       10.5251222404
  C         7.6657741707        0.6558817740       11.9373458228
  C         8.7312639989        1.1748441774       12.5830415292
  H         9.5624840923        1.5257756403       11.9483041441
  H         7.6012610546        0.6104505636       10.8719214918
  C         3.6610618553       -2.3989502138       16.0951033989
  C         4.4009509054       -3.4984765374       16.5724028399
  C         4.5216077762       -3.8478205415       17.9550679231
  C         3.8170764989       -3.0644809856       18.9236926315
  C         2.9153494058       -2.0733905787       18.4418340053
  C         2.8393105629       -1.6904821311       17.0662054257
  H         2.1956839064       -0.8744221533       16.6086996282
  H         2.2459074202       -1.6168672975       19.1947460558
  H         3.8504970448       -3.3190401627       19.9578486781
  H         5.0199948176       -4.7516872089       18.2473525707
  H         4.8023145550       -4.1544566087       15.8743967119
  C         1.1071530532       -3.1276810322       14.5813437458
  C         0.1595828292       -3.7112171211       13.8195933813
  C         0.3730793915       -3.8600081145       12.4172535044
  C         1.4772381985       -3.4041526837       11.8231762943
  H         1.6422989389       -3.5243436310       10.7433553087
  H        -0.4120143484       -4.3405798844       11.8449045772
  H        -0.8414033192       -3.9995691883       14.2823029732
  H         1.0183688725       -2.9929235393       15.6660544967
  C         3.7039681137       -2.4644325901       10.4451623132
  C         4.5156882843       -3.5531954700       10.0161757717
  C         4.5385927400       -4.0156272657        8.7559579627
  C         3.7985386126       -3.3113427426        7.7610357469
  C         2.9147731059       -2.2541631499        8.1023567211
  C         2.8517224916       -1.8974468100        9.4523194594
  H         2.1712067339       -1.0869066164        9.8244045794
  H         2.4134517075       -1.6528735381        7.3595591542
  H         3.9797536893       -3.5317255862        6.7105010828
  H         5.1305626486       -4.8806055822        8.5164745447
  H         5.0859392656       -4.0515041990       10.8684523338
  C         1.0292131834        5.8024111081       14.0378633722
  C        -0.0242790182        6.5300742402       14.6607230644
  C        -1.0332810380        7.1944464051       13.8820133837
  C        -2.1823525744        7.8351437165       14.5255947547
  C        -3.1841785960        8.4730662070       13.8108615079
  C        -0.1471139395        6.8452756931       16.1216860230
  C         0.7314421243        7.9294724932       16.5201140741
  C         0.7447525094        8.4092513701       17.8880272241
  C        -0.1701605779        7.8389749193       18.7973052342
  C        -1.0029542764        6.7472446714       18.4179403843
  C        -1.0167078874        6.2944352676       17.1271376417
  H        -2.2582027903        7.9189928577       15.5936294980
  H        -3.9507279985        9.0226038943       14.3306975798
  H         1.3736272106        8.5012185290       15.8194138753
  H         1.5151148709        9.1039838040       18.2565089661
  H        -0.1811346460        8.1039463102       19.8270928636
  H        -1.7567625381        6.3096455682       19.1094973199
  H        -1.7067155535        5.4295677935       16.8676404014
  C         1.0938224682        5.7759850495       12.5236785672
  C         2.1272272845        5.0116653738       11.8776283141
  C         3.2043535164        4.4988871283       12.5949356012
  C         3.1584644162        4.5022931911       14.0296989684
  C         2.0812103715        5.1152379133       14.7563744923
  C        -1.0054652858        7.0977153130       12.4460019732
  C         0.0910738783        6.4341068921       11.7934841990
  C         0.1329582241        6.6791519577       10.3081723077
  C         0.9479702703        7.7840009972        9.8563353687
  C         0.8479905179        8.2859518438        8.5808567080
  C        -0.0635490984        7.7032628543        7.6820586473
  C        -0.7233282106        6.5507676811        8.0351537321
  C        -0.5759127162        5.9723126828        9.3011535680
  H        -1.1404196284        5.1106437370        9.5679760894
  H        -1.3889656608        6.0857683107        7.3350230244
  H        -0.1330040773        8.0965856415        6.6784704191
  H         1.4557437797        9.1706383546        8.2761800817
  H         1.6662525173        8.2396540467       10.5507687815
  C        -1.9971425851        7.8397282983       11.6944198232
  C        -3.0664212913        8.4157805752       12.3590884397
  H        -3.8469317596        9.0630197872       11.8970774162
  H        -2.0348624172        7.8022518446       10.6298424495
  C         1.9827792013        4.8551905174       16.2617296425
  C         1.0962121541        3.9246759236       16.7812382764
  C         1.4098038703        3.3719006418       18.0251836422
  C         2.4106118121        3.9190036647       18.7852124289
  C         3.1191554402        4.9846459732       18.3203433401
  C         2.9550095322        5.4568189745       17.0615859708
  H         3.5402240619        6.3047005815       16.6982455608
  H         3.9400300338        5.3861072452       18.8207111582
  H         2.6774613058        3.5213850062       19.7428585808
  H         0.7750857118        2.5694896126       18.4653594865
  H         0.4692239753        3.3805353908       16.0820509459
  C         4.2390755719        3.8366509022       14.7018445781
  C         5.1952366053        3.1141959500       14.0681186772
  C         5.3257412599        3.1724237754       12.6212836110
  C         4.3841643580        3.9201830734       11.9122012730
  H         4.4662906784        4.0782406239       10.8051877154
  H         6.1907694155        2.6923805074       12.1931577315
  H         5.8967667026        2.5300099469       14.6076302253
  H         4.1515411891        3.7378278620       15.7763391637
  C         2.0689679481        4.5868612364       10.4512453694
  C         1.2332100261        3.5028208730       10.0481672542
  C         1.1659700019        3.1259417064        8.6668325250
  C         1.9696638366        3.8288638131        7.7622047137
  C         2.8739482824        4.8313342212        8.1599173712
  C         2.9211457021        5.2277164253        9.5232425948
  H         3.4830099177        6.0921347195        9.8396200180
  H         3.3804449833        5.3409680783        7.4016719019
  H         1.9681195108        3.5353274142        6.7178932192
  H         0.3943677165        2.4756942155        8.2853522279
  H         0.5434622523        3.0942031034       10.7987378315
