140

  C        16.3895143452       -0.6092536295        2.6982487397
  C        17.3476136427        0.0862116784        3.4370378432
  C        18.5710841784        0.6113757841        2.8386764271
  C        19.5536520122        1.3498270627        3.5211929467
  C        20.5531152165        2.0868184995        2.8802891975
  C        17.1401229924        0.4530988406        4.8906207811
  C        16.4670911613        1.5752909642        5.3143272360
  C        16.4896459027        2.0309308723        6.6402765104
  C        17.1969491451        1.3372149500        7.6234313719
  C        17.9036695601        0.1622151124        7.1926694468
  C        17.9166263132       -0.2469896159        5.8621334969
  H        19.4158750411        1.5111817704        4.5713039805
  H        21.0874366818        2.8069948934        3.4862102796
  H        15.9280142703        2.1711342888        4.6130691310
  H        15.9281140371        2.9391798099        6.9489805838
  H        17.2133935269        1.6078095458        8.6887827074
  H        18.4735820678       -0.4751805089        7.8561696590
  H        18.5501070019       -1.0456246980        5.5803343503
  C        16.4793898875       -0.5874274263        1.1911179237
  C        15.4423540018       -1.2883710814        0.5181835537
  C        14.3137648033       -1.8356326664        1.1340892839
  C        14.1785890974       -1.7452309109        2.5938438867
  C        15.2955650824       -1.3088491452        3.3682231778
  C        18.6768297498        0.5281863348        1.4283001377
  C        17.6068255813        0.0347150030        0.5866148518
  C        17.5963423507        0.3650583412       -0.8282539577
  C        16.7396311324        1.3939380052       -1.2414455363
  C        16.8446614440        1.9583769308       -2.5264782960
  C        17.6776934530        1.3239511867       -3.4638225955
  C        18.4737902967        0.2360623290       -3.0942136324
  C        18.3986813782       -0.3115953627       -1.7534752567
  H        18.9490755189       -1.0962534322       -1.2855399442
  H        19.2646064175       -0.2245999488       -3.7499374551
  H        17.7358328173        1.7786718135       -4.4580858629
  H        16.3056716764        2.8677127320       -2.8281430492
  H        15.9877590646        1.8108916052       -0.5403117093
  C        19.7511192581        1.1421162952        0.7949754547
  C        20.6421386420        1.9834131421        1.4718920768
  H        21.4036501837        2.5083606239        0.8733035664
  H        19.9193060629        1.1395521191       -0.3286459863
  C        15.3309271207       -1.7417743878        4.8147529355
  C        16.0791901914       -2.8426302745        5.1397362072
  C        16.1042873133       -3.3316938490        6.4937585466
  C        15.3628699431       -2.7138240185        7.5237353538
  C        14.5669846895       -1.6384377397        7.1298552648
  C        14.5746787493       -1.0624572013        5.8608169183
  H        14.0622416390       -0.1633459088        5.5924720527
  H        13.9377450630       -1.1182820478        7.8887948156
  H        15.3388580424       -3.1064760075        8.5463210867
  H        16.6634932897       -4.2312288537        6.7613748629
  H        16.7770373795       -3.4488965928        4.4804322759
  C        12.9858173982       -2.2349925683        3.2200996056
  C        11.9782639201       -2.7398090330        2.4707456629
  C        12.1941418558       -2.9510784141        1.0334813753
  C        13.3456293849       -2.5633528891        0.4571804810
  H        13.4013790585       -2.6832031693       -0.6234563407
  H        11.3213161257       -3.3814621224        0.5413143288
  H        11.0375972988       -3.0713700443        2.9587145776
  H        12.8859476635       -2.2798659558        4.3168546052
  C        15.5413646872       -1.4462831417       -0.9803202341
  C        16.3701223376       -2.4696460016       -1.4960217371
  C        16.1550377068       -3.1095059177       -2.6987978898
  C        15.2246587561       -2.4748467013       -3.5975814672
  C        14.4721599167       -1.3873117808       -3.1823890313
  C        14.5933185798       -0.9030490831       -1.8981758743
  H        13.9686134634       -0.1458908764       -1.4826577422
  H        13.8976821362       -0.8299254411       -3.9502341588
  H        15.1044392501       -2.8279790833       -4.5947746979
  H        16.7277843887       -3.9295313048       -3.0031188511
  H        17.0367692632       -2.9715414463       -0.7814359560
  C        13.0555949734        6.8712210766        2.6419932324
  C        12.0459871837        7.5790295407        3.3177795875
  C        10.8544838479        7.9981895578        2.5719299992
  C         9.6852125639        8.4483535943        3.2731931177
  C         8.6724436681        9.1149975637        2.6342214920
  C        12.0659634998        7.8909664950        4.8089696245
  C        12.6952192067        9.0529483828        5.3289287700
  C        12.4506246656        9.3777518305        6.6675956998
  C        11.6303412607        8.5883613207        7.4757948263
  C        11.0717792965        7.3976588408        6.9459569642
  C        11.2161579077        7.1579308477        5.6157931077
  H         9.7293507616        8.3664471279        4.3780225750
  H         7.8088656100        9.6101950075        3.0994942831
  H        13.3621158654        9.6577847591        4.6829491408
  H        13.0902781978       10.2330808628        7.1109982106
  H        11.4315718040        8.8766882337        8.5327587948
  H        10.2931858258        6.8627313637        7.4666290170
  H        10.7697286854        6.1930303411        5.2312536061
  C        13.0806031507        6.9094493590        1.1574321599
  C        14.1202026831        6.2233240496        0.4712556722
  C        15.1395890618        5.6528855542        1.1847884848
  C        15.1353450316        5.5022205058        2.6250339422
  C        14.0371313609        6.1358751507        3.3345261666
  C        10.9575500125        8.1571594440        1.1020872250
  C        12.0891931591        7.6413557439        0.4221806887
  C        12.1278227659        7.8497107283       -1.1033188942
  C        12.9560609270        8.8848764416       -1.5806969099
  C        12.8540261772        9.2883279298       -2.9255518955
  C        11.8641450001        8.6409121420       -3.8038267737
  C        10.9940842484        7.6811327216       -3.3109621281
  C        11.0930958796        7.3535535699       -1.9537803459
  H        10.4249471647        6.7555208298       -1.3880946395
  H        10.2649098515        7.1654735107       -3.9787062219
  H        11.8942082246        8.9073187008       -4.8614912598
  H        13.5441092377       10.0055879222       -3.3857695504
  H        13.7406216966        9.3600520988       -1.0297396576
  C         9.8394223108        8.7446372367        0.4928852950
  C         8.7633946731        9.2388930358        1.2182543725
  H         7.9232858269        9.6656560762        0.6283284269
  H         9.7018394094        8.7526773727       -0.5821362382
  C        13.9123601403        5.7093815276        4.7766419383
  C        13.1196543030        4.6293043706        5.1048117944
  C        12.9868053680        4.2102311166        6.4449900888
  C        13.7750232244        4.8431476100        7.4056524073
  C        14.7174489590        5.8317525487        7.0911407388
  C        14.7614151552        6.2400679787        5.7872348930
  H        15.4961828150        6.9871980536        5.5278783422
  H        15.3679509912        6.2566402104        7.8715968200
  H        13.7567011830        4.4187873940        8.4283575658
  H        12.5970013015        3.2434340873        6.6970311964
  H        12.5908967335        4.1043125946        4.3568843017
  C        16.1238746089        4.7127440886        3.1940442143
  C        17.2154488355        4.1210459800        2.4801710267
  C        17.3240672843        4.4198760966        1.0875759974
  C        16.2323739482        5.0838668917        0.4761658953
  H        16.3885462442        5.3077103585       -0.5685479103
  H        18.2015297855        4.1288813817        0.4948893386
  H        17.9751317067        3.5718804847        2.9666009584
  H        16.1527492907        4.4370315386        4.2307510060
  C        13.9562294456        5.8119463661       -0.9949079132
  C        12.9304794653        4.8044448520       -1.3984784683
  C        13.0430026088        4.2392326702       -2.7083664463
  C        14.0301980468        4.6410401635       -3.5759256294
  C        15.0557474062        5.5285399284       -3.1714180523
  C        14.9516262846        6.1052181556       -1.9435182210
  H        15.6170810103        6.9021300653       -1.4963209121
  H        15.9013723098        5.7598220842       -3.8001570255
  H        14.0977385579        4.2417727652       -4.5419136013
  H        12.2675158338        3.5380048910       -2.9741391235
  H        12.2009538392        4.4534214591       -0.6961082030
