140

  C         4.3493560620       -0.1305247222       15.6506444295
  C         5.4969398973        0.4185332364       16.3357412674
  C         6.6387083833        0.8316843657       15.5672139525
  C         7.7735750825        1.2911664142       16.2909168905
  C         8.7488977010        1.9758202555       15.6287866933
  C         5.4985615097        0.7850388774       17.7885939473
  C         4.7206761541        1.9588823101       18.1564292070
  C         4.7684683364        2.4131995782       19.5136401817
  C         5.5696993194        1.7222564870       20.4380070983
  C         6.4052267418        0.6042258368       20.0513548305
  C         6.2668826547        0.1243977491       18.7556127568
  H         7.8060002261        1.0042934075       17.3674236441
  H         9.6747449890        2.3067306365       16.1607028693
  H         3.9042771381        2.3563657556       17.4924424590
  H         4.2069935722        3.3135142366       19.8628076781
  H         5.6770366910        2.1394672052       21.4245594636
  H         7.0744193308        0.1211125515       20.7556200499
  H         6.8423982070       -0.7160766279       18.4283355204
  C         4.3237330312       -0.0912297489       14.1506157873
  C         3.3213832120       -0.8145086671       13.4487114893
  C         2.2105543207       -1.3544318714       14.2109539271
  C         2.2084565297       -1.3029845852       15.6228983718
  C         3.3651183446       -0.8498750135       16.3583025878
  C         6.4557296898        1.0827814868       14.1393271698
  C         5.4072201379        0.4961808695       13.4365306131
  C         5.2578638029        0.8756765199       11.9570156452
  C         4.3072926782        1.8490031342       11.5944843744
  C         4.3178009622        2.4005114055       10.2993545138
  C         5.2827079468        1.9053157499        9.3926772103
  C         6.2975990583        0.9300493019        9.7995733937
  C         6.2654623273        0.4035678583       11.1044076262
  H         6.9222075716       -0.3680593021       11.4495557021
  H         7.0693086093        0.5696103290        9.1242308725
  H         5.1548009208        2.1858620854        8.3633996747
  H         3.5987569587        3.0756726569        9.9077516759
  H         3.5578188022        2.1432835489       12.3330032063
  C         7.4724222043        1.9757591459       13.5887823888
  C         8.5813858429        2.3927007627       14.2746523522
  H         9.3536565139        2.9149363024       13.7039834754
  H         7.4836337638        2.1771004392       12.5022206218
  C         3.4738818082       -1.2708212563       17.8010159468
  C         4.3353601053       -2.3352208151       18.1373707116
  C         4.5881568929       -2.7556454669       19.4413843550
  C         3.7181393340       -2.2177006981       20.4305986968
  C         2.8909231227       -1.1619288948       20.1709204915
  C         2.7788233894       -0.6734128404       18.8890872810
  H         2.2327324396        0.2406013057       18.6566623397
  H         2.3081822020       -0.8200324962       21.0484114213
  H         3.9201768053       -2.4438158011       21.4920428778
  H         5.4490128782       -3.4278132783       19.5929398638
  H         4.7469036001       -2.8757921966       17.2832595117
  C         1.1272813370       -1.9129326451       16.3048274127
  C         0.0894276342       -2.5121872512       15.6737768234
  C         0.0626830410       -2.5836635940       14.3152911705
  C         1.2075171469       -2.1209886128       13.6013503926
  H         1.2439609275       -2.2429681264       12.4940090710
  H        -0.7713351479       -2.9138070819       13.6954073834
  H        -0.7346481844       -2.8787368771       16.2620378499
  H         1.2358105343       -2.0654432628       17.3834619033
  C         3.4432960089       -1.1679489217       11.9850195281
  C         4.3394655151       -2.1737267017       11.5530616503
  C         4.1786503597       -2.7948686125       10.2925285774
  C         3.1430181441       -2.4051701096        9.4161760863
  C         2.2406534788       -1.3633435039        9.8974651023
  C         2.4126924410       -0.7631381439       11.1560388200
  H         1.8171247094        0.0706686613       11.5389649038
  H         1.5135301518       -1.0162968492        9.1722195153
  H         2.9803495819       -2.8578111613        8.4438608823
  H         4.8638515802       -3.6193267337       10.0105959733
  H         5.2043678445       -2.4799568699       12.1674123552
  C         0.9699195686        7.1182784709       15.5844937888
  C        -0.0783928140        7.7771976123       16.2418316842
  C        -1.2048752955        8.1982938630       15.5742356601
  C        -2.2544448800        8.8503918438       16.2502849729
  C        -3.3352281921        9.3534463327       15.4924309156
  C        -0.0767528593        8.0573801425       17.7000375934
  C         0.4805608560        9.2495871111       18.0980334333
  C         0.2932234868        9.7848762464       19.3544216972
  C        -0.5446180453        9.1399296326       20.2700707909
  C        -1.0862508858        7.9055769923       19.8657090419
  C        -0.8771601680        7.3998073983       18.5892277751
  H        -2.2588610928        9.0334900603       17.3362318877
  H        -4.1833280286        9.7030174378       16.0418307066
  H         1.1528249148        9.8121662195       17.4434987514
  H         0.8206523131       10.6972616161       19.5652779218
  H        -0.7558725991        9.4908917753       21.2657673447
  H        -1.8432409840        7.5453560386       20.6056754780
  H        -1.2756953538        6.4092581357       18.3761205829
  C         1.0206029038        7.0453940494       14.0557261514
  C         2.1116371285        6.3633986505       13.5354494423
  C         3.1562901726        5.8448732772       14.3346964925
  C         3.0975157757        5.8743317561       15.7918936438
  C         1.9695416157        6.4887430550       16.3761205598
  C        -1.2001346903        8.1545662708       14.0874899930
  C        -0.0231939762        7.6651415724       13.3342308187
  C        -0.0062090554        7.9170870366       11.8395634007
  C         0.8677492814        8.9402406984       11.4236634478
  C         0.9407103899        9.2266283315       10.0431059389
  C         0.0164910470        8.6716674454        9.1574044273
  C        -0.8797013161        7.7157013674        9.5661737278
  C        -0.8993038188        7.3358567625       10.9230306594
  H        -1.6203509130        6.5693127684       11.2241228661
  H        -1.5413975811        7.2822051968        8.8120624144
  H        -0.0957722362        8.9819096281        8.1438434992
  H         1.7801176248        9.8294416833        9.7484302234
  H         1.4218700021        9.5265862720       12.2318620226
  C        -2.1634663583        8.9563990077       13.4387516545
  C        -3.2377114099        9.4668110786       14.0783686778
  H        -3.9544918858       10.1134204191       13.5360345287
  H        -1.9610163724        9.2340462824       12.3932666268
  C         1.8047750314        6.1992458361       17.8166031815
  C         1.0147340201        5.1126793080       18.2377139372
  C         0.9619236200        4.7378816430       19.6004076409
  C         1.6530023953        5.4795421336       20.5299100014
  C         2.4488615899        6.5918526521       20.1140375221
  C         2.5031639854        6.9320889925       18.7786476467
  H         3.2183641316        7.6932408527       18.4287739748
  H         3.0329120774        7.1277795919       20.8875352830
  H         1.6677621657        5.1117061199       21.5516452267
  H         0.3822464986        3.9028336325       19.9851213275
  H         0.4413957592        4.4805537193       17.5658822548
  C         4.1763222553        5.2866027985       16.5384806153
  C         5.2307466494        4.6145000346       15.9213319366
  C         5.2468736689        4.5833234947       14.5154049681
  C         4.2518927346        5.1722286520       13.7274282298
  H         4.2951464731        5.1696150534       12.6238838994
  H         6.0004599333        3.9620987986       13.9870677253
  H         5.9635072984        4.0461079278       16.4743739872
  H         4.0453637981        5.2238610837       17.6095136087
  C         2.0585335717        5.8029215751       12.1513386784
  C         1.1123299062        4.8097684086       11.9113322646
  C         0.8811109789        4.3081576926       10.6460770347
  C         1.7644771698        4.7318627060        9.6044095717
  C         2.7101020883        5.7299570949        9.7883035118
  C         2.7890316261        6.3550842053       11.0759474876
  H         3.3711949622        7.2331459504       11.2611109643
  H         3.3034313388        6.0947139193        8.9152972665
  H         1.7097336315        4.3128804481        8.5683114231
  H         0.0641413240        3.6239781976       10.4777151944
  H         0.4434948694        4.5077386111       12.7413177610
