140

  C        12.5017252726        1.0904669070        1.3552051236
  C        13.5254757627        1.7143210163        2.0534835138
  C        14.6950540400        2.1312928590        1.2986356417
  C        15.7860564301        2.7631584886        2.0421802496
  C        16.7053548226        3.5847516092        1.4220061214
  C        13.4857539653        2.0272116945        3.5214213410
  C        12.7456935254        3.1249627375        3.9218589736
  C        12.8485726099        3.5617141810        5.2745835161
  C        13.7860057363        2.9852169859        6.1196350258
  C        14.5679182809        1.8764865671        5.6906165227
  C        14.4215231947        1.3956889481        4.4190651978
  H        15.8616518689        2.6747674400        3.0816689951
  H        17.5667922776        4.0021318293        1.8778252906
  H        12.0590120463        3.5560657019        3.2113620908
  H        12.2887087485        4.3875013628        5.6765416221
  H        13.7259851524        3.0789888246        7.2149264046
  H        15.3257439916        1.4185541237        6.2733396297
  H        14.9811166623        0.5710254689        4.0194390789
  C        12.5149971066        1.0848184269       -0.1317211107
  C        11.5255735366        0.3591601921       -0.8596073006
  C        10.4782627536       -0.2122636838       -0.0793210547
  C        10.4018169881       -0.2449229278        1.3370980576
  C        11.5635644748        0.2720643617        2.0212477667
  C        14.6446634211        2.3496720899       -0.1422745716
  C        13.5439633876        1.8382982055       -0.8556478092
  C        13.4075833669        2.1618511118       -2.2928462065
  C        12.5325524198        3.2118465538       -2.5875985782
  C        12.5130927092        3.7418717671       -3.8994939337
  C        13.3835910616        3.2840676761       -4.8710225305
  C        14.3575662041        2.3083830664       -4.5770653483
  C        14.2733908831        1.6768428025       -3.3039483056
  H        14.8570905813        0.7381929270       -3.2148917587
  H        15.1149680476        1.9192146694       -5.2630830502
  H        13.3418906127        3.8113290368       -5.8590138738
  H        11.7723984620        4.4958873305       -4.1247737867
  H        11.9080408426        3.6370665290       -1.8392380752
  C        15.6721212658        3.1318092547       -0.7662999305
  C        16.6565622844        3.7577765593       -0.0124267754
  H        17.4234076399        4.3606440942       -0.4676225118
  H        15.7825167948        3.1308765937       -1.8495520808
  C        11.6795281429       -0.1067866788        3.4116034738
  C        12.6175512165       -1.0926086388        3.7163096275
  C        12.7334187161       -1.6091013810        5.0132594417
  C        12.0047972946       -1.0612313245        6.0539912580
  C        11.1435049662       -0.0001697556        5.7465663347
  C        10.9099252420        0.4854825041        4.4645517620
  H        10.1542461723        1.2750185434        4.1591467504
  H        10.5514771405        0.3788633534        6.5837501746
  H        12.1322516791       -1.3894219786        7.1288063805
  H        13.5263257574       -2.3433098199        5.2726160241
  H        13.2037130751       -1.5571595980        2.9024370992
  C         9.2433589662       -0.8485801868        1.9410413090
  C         8.1352986455       -1.2241270559        1.2283229501
  C         8.2013953950       -1.2424741190       -0.1480037752
  C         9.2542234789       -0.6533954395       -0.8037880212
  H         9.2485105047       -0.6185511652       -1.8906462270
  H         7.4351072808       -1.6183775948       -0.7715491734
  H         7.2373119825       -1.6506168190        1.7477165956
  H         9.2198343260       -0.8731860966        3.0729736462
  C        11.5321797243        0.1027751692       -2.3266350744
  C        12.3600999330       -0.9674048436       -2.8509095196
  C        12.2639161169       -1.3807612061       -4.1314063773
  C        11.3491876761       -0.6736274598       -4.9559603230
  C        10.4191946550        0.2826970479       -4.4783863919
  C        10.5713084588        0.7218615134       -3.1881854978
  H        10.1532895907        1.6567639007       -2.8371987796
  H         9.7698587161        0.8852355255       -5.1152661307
  H        11.2681950279       -1.0819931218       -5.9900101889
  H        12.9997603734       -2.0191706573       -4.5986501545
  H        13.1305056856       -1.3882604576       -2.1568907472
  C         9.1042826507        8.1344577589        1.5541069843
  C         7.9571346115        8.7845365132        2.1687023840
  C         6.9249320073        9.4137741103        1.4355847808
  C         5.6968868482        9.8920287456        2.0056364637
  C         4.6402767818       10.3385312648        1.2169900188
  C         7.9793452311        9.0178227248        3.6499615141
  C         8.9617214576        9.9560476640        4.1894012369
  C         9.0195995438       10.2078610133        5.5705896080
  C         7.9084302488        9.7829427253        6.3928793850
  C         6.9746942954        8.8911554012        5.8708333300
  C         7.0105382078        8.5387803602        4.4916021268
  H         5.5430145450        9.9595130908        3.0422349142
  H         3.6908424298       10.7586092089        1.6516627990
  H         9.7536211541       10.2343865151        3.4816123171
  H         9.7251931638       10.9096241377        6.0512433732
  H         7.9791184154        9.8899713608        7.4949056980
  H         6.1925046647        8.4527838723        6.4899189832
  H         6.2922403188        7.9078893043        4.1031670944
  C         9.2457866769        8.2571447044        0.1067864482
  C        10.2521903432        7.5292910349       -0.5791731957
  C        11.3028218988        6.9446340690        0.1722492124
  C        11.3348298228        6.9354032463        1.6485577602
  C        10.2302050315        7.5149130378        2.2263716692
  C         7.0902403441        9.4898221096        0.0079523672
  C         8.2322707860        9.0009573450       -0.6821033700
  C         8.4214527052        9.2491011408       -2.1675703570
  C         9.1630323876       10.4403551457       -2.5360973319
  C         9.1182588904       10.8747006733       -3.8378765383
  C         8.2759545486       10.2067224129       -4.8242749769
  C         7.4909629682        9.1929101852       -4.4399410139
  C         7.5634893364        8.6539869854       -3.1000598889
  H         6.8253677760        7.9210413634       -2.9512050825
  H         6.7779358861        8.8207328207       -5.1787879166
  H         8.3966647142       10.5158894213       -5.8384757988
  H         9.5569675282       11.8290687184       -4.2280641833
  H         9.5447081221       10.9769080431       -1.6901266367
  C         5.9408157716       10.0430955815       -0.7605977585
  C         4.7590726790       10.4197318796       -0.2377536456
  H         3.9258721055       10.6728083557       -0.8622271011
  H         6.0952740667       10.1923592106       -1.8228460400
  C        10.0952406138        7.1888691839        3.6582093096
  C         9.2899041138        6.1756435027        4.1876790534
  C         9.3252233787        5.6262902089        5.4551976110
  C        10.3313472542        6.1427060580        6.3043606284
  C        11.1889303301        7.1811825518        5.8445402642
  C        11.1367349654        7.6446170808        4.4846596930
  H        11.8915405060        8.3358801081        4.1628675193
  H        11.9863509147        7.5325262299        6.5407717906
  H        10.4305832590        5.9156925405        7.3702595858
  H         8.8043619277        4.6833264737        5.6820500488
  H         8.5145610407        5.8818750693        3.4982832646
  C        12.4006325902        6.2576586744        2.2381577272
  C        13.5023327492        5.7962130848        1.5768566691
  C        13.5335190408        5.7978159961        0.1373005935
  C        12.4249947167        6.3035692814       -0.5176160524
  H        12.4182234645        6.3454234886       -1.6302511442
  H        14.3184867109        5.3337007757       -0.3722282343
  H        14.3511222857        5.4425302037        2.1051884985
  H        12.5273439410        6.2174051552        3.3109347379
  C        10.1427541446        7.1178943507       -2.0452951544
  C         9.3184785657        6.0165475207       -2.4168656578
  C         9.2834143184        5.5773283787       -3.7904200158
  C        10.0980276772        6.2497839123       -4.7183700996
  C        10.9471260687        7.3188880626       -4.3915004309
  C        10.8771495848        7.7648196902       -3.0458962672
  H        11.5155815712        8.5739924417       -2.6628220636
  H        11.6676192457        7.7241723186       -5.0495829592
  H        10.1791302185        5.9394816523       -5.7627057331
  H         8.5304030922        4.8366395191       -4.1157416060
  H         8.5194832568        5.5781204473       -1.7438270938
