140

  C         5.7372585351       -0.3330199208       16.3166731691
  C         6.7875928185        0.3804282248       17.0300755859
  C         7.8023551827        1.0301023305       16.3067343944
  C         8.9089782099        1.6474434522       17.0440861581
  C        10.0522963662        2.0731796753       16.3539243409
  C         6.6944160966        0.7923048517       18.4740764735
  C         5.9407328029        1.9478037594       18.7678875395
  C         5.9296328044        2.4370657645       20.0942151269
  C         6.6182448199        1.7656514620       21.1349400327
  C         7.3686260806        0.6294467851       20.8353591946
  C         7.4488709435        0.2090199113       19.5162207425
  H         8.8327975980        1.8497846281       18.0981890879
  H        10.9155262031        2.5774206850       16.7727337589
  H         5.2338362634        2.3986811044       17.9935456022
  H         5.5812226685        3.4105540012       20.2773887511
  H         6.5908095013        2.0846505748       22.1477158003
  H         8.1012081205        0.2780184921       21.6001467251
  H         8.0525332033       -0.6512802506       19.2515067061
  C         5.7112446496       -0.3115649517       14.8098138871
  C         4.7528600647       -1.1458303203       14.1270614863
  C         3.6583197348       -1.7335539068       14.8517301212
  C         3.7537806218       -1.7862084114       16.2656094798
  C         4.8190396683       -1.1776175270       16.9882449602
  C         7.7167980212        1.1128431773       14.8699895077
  C         6.6262594377        0.6200178421       14.1466298509
  C         6.6823029041        0.9756490018       12.7009646072
  C         5.9921884963        2.0498407017       12.0335748794
  C         6.1107547424        2.3222550261       10.6829217303
  C         6.8936133243        1.3980782646        9.9513216856
  C         7.5952519521        0.3721207213       10.5735834421
  C         7.4729967616        0.0591140367       11.9530958349
  H         7.9626153088       -0.8193492856       12.3810863803
  H         8.1097486647       -0.3044620154        9.9290000608
  H         7.0675974448        1.6128157052        8.9073518779
  H         5.6220928595        3.0747320066       10.1126622397
  H         5.3196222706        2.6996844266       12.5841792354
  C         8.8790468698        1.6723031262       14.2517456555
  C        10.0493633519        2.0364096905       14.8774514188
  H        10.9710542407        2.2976267324       14.3911348204
  H         8.8723753996        1.6813390678       13.1598390722
  C         4.7685721337       -1.4490563584       18.5325919023
  C         5.3540956735       -2.5610184985       19.1648934221
  C         5.0935362225       -2.8469825436       20.5365965563
  C         4.3638409767       -1.9588414051       21.3324128520
  C         3.8774330089       -0.8258877109       20.7109198233
  C         4.0041948370       -0.6128944395       19.3024464614
  H         3.3839983404        0.1957730869       18.9807790448
  H         3.2613088554       -0.1234669790       21.2204464919
  H         4.2193027272       -2.1434466332       22.4094187446
  H         5.5703436990       -3.7068806663       20.9977566111
  H         5.8447747429       -3.2664720607       18.5785425964
  C         2.7087180613       -2.4965611584       16.9288517454
  C         1.6007977865       -3.0191156345       16.2875519479
  C         1.4970556145       -2.9088017000       14.8669054110
  C         2.4832767911       -2.2352642620       14.2120524444
  H         2.3589447117       -2.1982612136       13.1378452165
  H         0.6755474473       -3.3602941237       14.3655626234
  H         0.7666275304       -3.5855086206       16.7627011326
  H         2.6457271793       -2.4656544221       18.0409560533
  C         5.0211653037       -1.5636331466       12.6832546483
  C         5.9407947295       -2.5551650120       12.3380611805
  C         5.9756976550       -3.1088616136       11.0948172649
  C         5.0437724430       -2.6615308781       10.0645892966
  C         4.2191056292       -1.6042288294       10.3719964919
  C         4.1533976695       -1.0332834208       11.6732740819
  H         3.3975933362       -0.2425280828       11.8776550905
  H         3.6088782932       -1.1854290014        9.5570709058
  H         5.2058863024       -3.0854447807        9.0836410698
  H         6.8130120121       -3.8002018580       10.9818968080
  H         6.6679054897       -2.8464305097       13.1028791101
  C         2.1074595102        6.7427060107       16.1431006409
  C         1.0532708757        7.3344372908       16.9047884571
  C        -0.0351246834        7.8995612953       16.1796362286
  C        -1.1467551471        8.5131334027       16.8960118721
  C        -2.1821425384        9.1423522827       16.2749277907
  C         1.1849747965        7.7834821671       18.3142878370
  C         2.0536759166        8.9103723041       18.5662312487
  C         2.2465612645        9.3685178307       19.8835598158
  C         1.7511295908        8.6230080464       20.9474666982
  C         0.8620485041        7.6002035904       20.7488787738
  C         0.5680135647        7.1360059510       19.4464276974
  H        -0.9664279635        8.5468096374       17.9750472068
  H        -2.7861534899        9.7630883395       16.9042124115
  H         2.4765536960        9.5487789806       17.8013908605
  H         2.9919142557       10.1789177309       20.1151075194
  H         1.9658244035        9.0003235964       21.9859051682
  H         0.4770608150        6.9084723238       21.4998283795
  H        -0.1046384655        6.2854349426       19.2921681680
  C         2.1271967049        6.8090720569       14.6468007047
  C         3.2242501471        6.1744166173       14.0062432227
  C         4.4107466530        5.7308186037       14.6825188928
  C         4.4170278358        5.7031556841       16.1378625372
  C         3.2815844938        6.1487641371       16.8508833665
  C        -0.1602644489        7.8957626468       14.7354192434
  C         0.9745259103        7.4134677693       13.9557975500
  C         1.0152850462        7.7287280964       12.5319085791
  C         1.9265458711        8.7689661969       12.1794940303
  C         2.0785987159        9.1433985752       10.8381167341
  C         1.3565432113        8.4771532949        9.8674585835
  C         0.4837619789        7.4590140010       10.1654173181
  C         0.2826545686        7.0574252891       11.5232861897
  H        -0.3430151923        6.1695029428       11.7260581944
  H        -0.0298695370        6.9288427326        9.3140102389
  H         1.4573221648        8.8487527030        8.8583345778
  H         2.7118291075        9.9760876953       10.5819289397
  H         2.4843255252        9.2301211798       13.0027330457
  C        -1.3455934844        8.4320984546       14.1430050148
  C        -2.2684587060        9.0957675265       14.8441560315
  H        -3.1375607189        9.5574433933       14.3261958691
  H        -1.4640618055        8.4040280314       13.0555333888
  C         3.0988793700        5.7665134267       18.2405866832
  C         2.6916625460        4.4036940574       18.3241255985
  C         2.4376018215        3.8521201087       19.6039820902
  C         2.9392631984        4.5364303386       20.7505057109
  C         3.6363472050        5.6985546701       20.6081974557
  C         3.7950874638        6.3253019667       19.3352395747
  H         4.1520197160        7.3412948856       19.2473729325
  H         4.0454460126        6.1818372485       21.4817764156
  H         2.7707250915        4.1812127641       21.7280462981
  H         2.0272536344        2.8260996419       19.7930839974
  H         2.2595238276        3.8916310785       17.4460260084
  C         5.4924300859        5.0036489671       16.7757124963
  C         6.5207329236        4.5089176807       16.0117732649
  C         6.5570893842        4.5492032150       14.5876441893
  C         5.4744308252        5.1739709782       13.9220584695
  H         5.4927877812        5.2893040354       12.8284933079
  H         7.3601999342        4.0960315437       14.0135787438
  H         7.3399554089        3.9483017373       16.4715027613
  H         5.4839464329        4.8105249847       17.8194305328
  C         3.0442121189        5.6262572287       12.5788149437
  C         2.3222798264        4.3997345875       12.4013371356
  C         2.1433051590        3.9623578608       11.0383599238
  C         2.9446654097        4.5061586578       10.0134739407
  C         3.7415554936        5.7094639998       10.2470455469
  C         3.7595558986        6.2503749923       11.5190759986
  H         4.4068078843        7.1137899463       11.7312167829
  H         4.2526447341        6.1362954496        9.3891738934
  H         2.9088874844        4.1639226172        8.9778570843
  H         1.5738569114        3.0669562040       10.7567089915
  H         1.8285091833        3.9140021817       13.2295037295
