140

  C        15.8395955970       -1.4721339097        0.4917144177
  C        16.9440672981       -0.7763846562        1.0666877303
  C        18.0129391560       -0.2642677783        0.3221497292
  C        19.1229782406        0.2881657939        0.9916959249
  C        20.0517684514        1.0192922307        0.2609748140
  C        16.8095035480       -0.2987923159        2.4388444892
  C        16.0870804490        0.9288301352        2.6380865020
  C        15.9247348954        1.4300914702        3.9241224540
  C        16.5320894657        0.7936132073        4.9851752759
  C        17.3088550544       -0.3175646332        4.7962083498
  C        17.4222850311       -0.9015938952        3.5133669441
  H        19.2521879568        0.2335718717        2.0761122117
  H        20.9325550193        1.4917191112        0.6619321191
  H        15.6738039185        1.4381485203        1.7694346709
  H        15.3412794827        2.2740969414        4.2409875356
  H        16.5233621537        1.1894107677        5.9517606273
  H        17.9587607886       -0.6871815458        5.5670455816
  H        17.8953628998       -1.8586635082        3.4200503173
  C        15.8783759693       -1.6280774235       -0.9802075477
  C        14.9626343703       -2.4376554939       -1.5860654279
  C        13.8503844869       -3.0648621267       -0.9573809566
  C        13.7323195880       -2.8019281752        0.4707503554
  C        14.7605141016       -2.1029298607        1.1919499036
  C        17.9299572714       -0.2475846769       -1.1655905206
  C        16.8094928453       -0.8203290139       -1.7592648216
  C        16.6395951481       -0.3813526011       -3.1805863014
  C        15.8229106142        0.6853116840       -3.4667221567
  C        15.9429243552        1.3149721032       -4.7516745396
  C        16.8640355266        0.8998419647       -5.6903308841
  C        17.6764842931       -0.2295244803       -5.4117938844
  C        17.5268197283       -0.9347590700       -4.1933772405
  H        18.1836228686       -1.7432449052       -3.8896440152
  H        18.4108737452       -0.4745360536       -6.2120029831
  H        17.0743906588        1.5001111046       -6.6123249367
  H        15.3725374807        2.2259109599       -4.9036446363
  H        15.2921776058        1.2226981615       -2.6579173140
  C        18.9043652573        0.5216979875       -1.8313743454
  C        19.9203787248        1.0939411882       -1.1629571892
  H        20.6042260778        1.7421393817       -1.7024980956
  H        18.8020496997        0.7001504447       -2.9738169288
  C        14.7412488020       -2.3807548490        2.6591062747
  C        15.4673880509       -3.4583860372        3.2658396088
  C        15.3788459376       -3.9760774718        4.5740621771
  C        14.6513280452       -3.1298927402        5.4302016702
  C        13.8581644297       -2.0116938455        4.9201764997
  C        14.0037119736       -1.6371149868        3.6148252437
  H        13.3838659266       -0.8493519437        3.2374750006
  H        13.2391626747       -1.5107219852        5.6756311430
  H        14.4438191153       -3.4332160042        6.4836163570
  H        15.9736474997       -4.8170895837        4.9645689322
  H        16.1838492025       -3.9453916610        2.5104413691
  C        12.6209987462       -3.3108296187        1.2838199945
  C        11.5844179305       -3.8901991433        0.5932284207
  C        11.6638774605       -4.0429651441       -0.8601393550
  C        12.7667030455       -3.7208389423       -1.6134804953
  H        12.6830987554       -4.1299365512       -2.6407184903
  H        10.8653507034       -4.5455933239       -1.3392694389
  H        10.6532169835       -4.1939136761        1.1551105190
  H        12.6364991903       -3.1254680501        2.3484871408
  C        15.0767281626       -2.6665503525       -3.0544660444
  C        15.6637060063       -3.8013810397       -3.6333827628
  C        15.4991343832       -4.1538367078       -4.9980533418
  C        14.8494774418       -3.2001964360       -5.7752977987
  C        14.1602610161       -2.0991397479       -5.2318536186
  C        14.2055872061       -1.8930489358       -3.8665807897
  H        13.6891668350       -1.0453549567       -3.4133543908
  H        13.4010114200       -1.5762858723       -5.8307915766
  H        14.8634792343       -3.2865216588       -6.8462540271
  H        15.9329153063       -5.0342868933       -5.4731159007
  H        16.3833525052       -4.4447963847       -2.9747131105
  C        12.0339760622        5.9478771353        0.3769717255
  C        10.9915243278        6.6038470522        1.0456707700
  C         9.9862215325        7.1941429018        0.2828074772
  C         8.9119951817        7.9245807266        0.8945452725
  C         7.8250344560        8.4406789488        0.1965046044
  C        11.0219317538        6.9286864003        2.5266474778
  C        11.7609292153        8.1664753279        2.9770500266
  C        11.7544369664        8.4981878809        4.2888884455
  C        11.0888588460        7.7732548877        5.3004920882
  C        10.3958170156        6.6782212542        4.8230982021
  C        10.3177262743        6.3067792585        3.4670388831
  H         8.8047654275        7.8692130478        1.9938944092
  H         6.9377264476        8.8026929904        0.6549954327
  H        12.2016805111        8.7158522348        2.1830364243
  H        12.4486692508        9.3004860333        4.5711254259
  H        11.1012894421        7.9433307282        6.4083837151
  H        10.0039909755        5.9702804408        5.5424271667
  H         9.8058559261        5.3487999027        3.3573269248
  C        12.0826671211        5.9568509673       -1.1014715109
  C        13.1533193190        5.3141461689       -1.7791535751
  C        14.2815138171        4.7782284346       -1.0873488059
  C        14.2152378360        4.8332335124        0.3649453272
  C        13.0818968232        5.2344652451        1.0226228245
  C        10.0221876524        7.1670404598       -1.1571216468
  C        11.0617620408        6.5376312768       -1.8318588748
  C        11.2180572142        6.9198915186       -3.2773283276
  C        12.0899693083        7.9896637002       -3.5544305380
  C        12.2105079591        8.5923382975       -4.8494473006
  C        11.3999198468        8.1449404555       -5.8455683565
  C        10.5140416098        7.0542992585       -5.7089495627
  C        10.4606807664        6.4763644179       -4.4186776796
  H         9.7622719986        5.6962273696       -4.2510570843
  H        10.0435093721        6.5479241115       -6.5008600220
  H        11.5039824355        8.5309905584       -6.8168715490
  H        13.0405320453        9.2796993065       -4.9670084683
  H        12.7888049378        8.3061411757       -2.7766276721
  C         8.9748529481        7.8456542729       -1.8192575138
  C         7.8519651439        8.4524975108       -1.2452881758
  H         7.0566207589        8.8750727281       -1.8226056774
  H         8.8995319614        7.6996917480       -2.9012198204
  C        13.0415682289        4.7497358233        2.4102679297
  C        12.3756289674        3.5795681901        2.7496481862
  C        12.4106327121        3.0642115302        4.0384363812
  C        13.3023514723        3.7078382426        5.0092356348
  C        13.9533109238        4.8650839450        4.6732798274
  C        13.9360766228        5.3478906910        3.3335682763
  H        14.4897487309        6.1473128898        2.9376584009
  H        14.5479399814        5.3651826672        5.4629185522
  H        13.3189230590        3.3705026820        6.0034318243
  H        11.8664578882        2.1498150074        4.3283805676
  H        11.7424639392        3.0658679964        2.0604914456
  C        15.3597025066        4.2196362495        1.0324648033
  C        16.3987026130        3.6942511348        0.3578908636
  C        16.3784503729        3.5657024519       -1.0650211170
  C        15.3580982490        4.1408813081       -1.7742683932
  H        15.3737705569        4.1299212910       -2.8450468286
  H        17.2221741133        3.1194185361       -1.5486714680
  H        17.2099954124        3.2223939578        0.8859708096
  H        15.4900610489        4.2504223505        2.0430363955
  C        12.9531485556        4.7914481430       -3.1818705282
  C        12.1347832568        3.6938953579       -3.3379262000
  C        12.0598182950        3.0713611050       -4.5637233426
  C        12.8553882340        3.5007928713       -5.6467774306
  C        13.6433655549        4.6637324119       -5.5671663475
  C        13.7794082976        5.2563132312       -4.2856217359
  H        14.3023824346        6.2511567170       -4.1264719204
  H        14.1536075078        4.9929533643       -6.4789810906
  H        12.7933510282        2.9468667301       -6.6085432129
  H        11.4726935547        2.2101863252       -4.7765484690
  H        11.5486951471        3.2573165850       -2.5644810650
