140

  C        15.8606504048       -0.9507251435        0.4377889758
  C        16.9587356173       -0.3649292568        1.1262245982
  C        18.1129108336        0.0962063810        0.3856617199
  C        19.3180113019        0.4580069945        1.0675414690
  C        20.3529050688        0.9628577069        0.3309353443
  C        16.8596883910       -0.1786057490        2.6434277848
  C        15.9455906564        0.6766137002        3.2884993370
  C        15.9895898279        0.8911217062        4.7212229316
  C        17.0358584803        0.2349009356        5.4349375968
  C        17.9168729866       -0.6399831970        4.8223565974
  C        17.7789467142       -0.9300570589        3.4770363327
  H        19.4281467432        0.4189928908        2.1349755212
  H        21.2773725514        1.2554147689        0.8585425839
  H        15.1453256299        1.1637830516        2.6697290522
  H        15.2193200472        1.4630200778        5.2873513303
  H        17.0647430386        0.4385250199        6.5396032725
  H        18.7370824746       -1.1444877542        5.4139543872
  H        18.3094803126       -1.7341503368        2.9260854364
  C        15.7001220015       -0.8486532883       -1.1182964626
  C        14.6702386393       -1.5430576142       -1.8196522939
  C        13.7312438060       -2.3159716696       -1.0584571485
  C        13.7840915988       -2.3153796354        0.3572899605
  C        14.8340682424       -1.6791999828        1.1558606372
  C        17.9792642176        0.1314010558       -1.0960971721
  C        16.7824272949       -0.1767798532       -1.8568087356
  C        16.7766246253        0.1006514700       -3.3391272224
  C        15.7226073873        0.8096018700       -3.9671848241
  C        15.7256969117        0.9920011550       -5.3393884550
  C        16.7637892993        0.4691608131       -6.0807574461
  C        17.8212595103       -0.2581985736       -5.4949737111
  C        17.7865822448       -0.4500390657       -4.1255393456
  H        18.4536311804       -1.1376517792       -3.5938424169
  H        18.5021044983       -0.7669119264       -6.1169137338
  H        16.7488290008        0.6273975712       -7.1258081403
  H        14.9333261400        1.4915100874       -5.8566776584
  H        14.9387464385        1.3013587424       -3.4690342675
  C        19.1485906053        0.7038445327       -1.8270467179
  C        20.2348460479        1.0797703312       -1.0815835726
  H        21.1066574108        1.4465376766       -1.5844969911
  H        19.1533982183        0.8750977444       -2.8528044995
  C        14.9832468950       -2.1602345965        2.5693423460
  C        15.9791592731       -3.1895669933        2.7202445788
  C        15.9204516134       -3.8630031282        3.9366096257
  C        15.1266454741       -3.5157767427        4.9952594906
  C        14.1015404363       -2.5559633344        4.8091020377
  C        14.0038264701       -1.8566818728        3.5782268883
  H        13.3684211491       -0.9671340786        3.5956161329
  H        13.3130026062       -2.4155356807        5.5956376238
  H        15.1838340308       -4.0406238593        5.9741148753
  H        16.4113648096       -4.7800300644        4.1486694011
  H        16.6024573248       -3.5272468389        1.8736034782
  C        12.6910805338       -2.9676868007        1.0696870414
  C        11.6869602369       -3.6097916830        0.4046344536
  C        11.7762474643       -3.8769931060       -1.0101014638
  C        12.7725369593       -3.2464261200       -1.7033995706
  H        12.6827519122       -3.2653371546       -2.7787309140
  H        11.0509254531       -4.5645252961       -1.5125043118
  H        10.7918595081       -3.8301069814        0.9775201569
  H        12.6865994179       -2.9724832228        2.1152651189
  C        14.7164531722       -1.9909196648       -3.2422173708
  C        15.5069323112       -3.1284765175       -3.4450201047
  C        15.4065697213       -3.8689206582       -4.6507933444
  C        14.4431579727       -3.4804420977       -5.6344444065
  C        13.7697544664       -2.2582273482       -5.4250651408
  C        13.8450937977       -1.5556246620       -4.2069633884
  H        13.2595964430       -0.6588780818       -4.0586140140
  H        13.0589119711       -1.8503046853       -6.0856035261
  H        14.3007760507       -4.0074099493       -6.5816685419
  H        15.9767762829       -4.7909612855       -4.7742117967
  H        16.1556995319       -3.3333525079       -2.6636501421
  C        12.1227560861        6.0694050858        0.2841312546
  C        11.1131702054        6.8636069885        0.9115941712
  C         9.9986710249        7.4545773591        0.1441169435
  C         8.8707277025        8.0485393935        0.8004384594
  C         7.7828305399        8.4717708754        0.1846845816
  C        11.1226368566        7.2104153305        2.3477818292
  C        11.8961551257        8.2272832995        2.8245598552
  C        11.9338954616        8.6100061109        4.2191841027
  C        11.1223091273        7.7637891380        5.0749121819
  C        10.3263011225        6.7639737477        4.5816939243
  C        10.2136217918        6.5469059183        3.1899941095
  H         8.8454462593        8.0682025173        1.8916063078
  H         7.0450120942        8.9983941828        0.8032739160
  H        12.6351391093        8.7223517970        2.1545798118
  H        12.6682602140        9.3410753882        4.5693970434
  H        11.1615117229        7.9849733330        6.1084343139
  H         9.5761141529        6.3870939031        5.2380537326
  H         9.4516923597        5.8247910738        2.8361278656
  C        12.0479300301        6.0160918698       -1.2062059667
  C        13.0524233788        5.2771776902       -1.8677166667
  C        14.1268441018        4.6918591550       -1.1996348591
  C        14.0751581464        4.6017066765        0.2270737516
  C        13.0820575984        5.2719597533        0.9663497228
  C         9.9653172932        7.3563625811       -1.2638244035
  C        11.0401693719        6.7005671208       -1.9471589268
  C        11.0988107083        7.0062724592       -3.3998249314
  C        11.8497525589        8.1947452838       -3.8298922444
  C        11.7103820943        8.6940039816       -5.1064856942
  C        10.8867944989        8.0649282495       -6.0515532317
  C        10.2256788794        6.9242556550       -5.6498600575
  C        10.3121307506        6.3100201706       -4.3865827331
  H         9.7467929492        5.4361406010       -4.1130281835
  H         9.6807852575        6.4248487255       -6.4252008522
  H        10.7042763926        8.3972029905       -7.1314184605
  H        12.2153428384        9.6061548790       -5.3122006772
  H        12.4509609579        8.6925617536       -3.1397861000
  C         8.7496071016        7.8795194916       -1.9691937764
  C         7.7148249996        8.3964960493       -1.2301533039
  H         6.8063484586        8.8172648340       -1.6668062180
  H         8.6761162897        7.9370197434       -3.0781191428
  C        13.0717018947        4.9100723274        2.4493133980
  C        12.1662278625        4.0049353948        2.9948349002
  C        12.2094984307        3.6390557453        4.3363248924
  C        13.0088233983        4.2506290201        5.2435218826
  C        13.8077648673        5.3691578322        4.7097971820
  C        13.8844754226        5.6169252521        3.3427669976
  H        14.5868298066        6.4052107538        3.0312261240
  H        14.4668610360        5.8745767995        5.3240123978
  H        13.0085618861        3.9772910783        6.3007044604
  H        11.5269224411        2.8517855070        4.6980811979
  H        11.5002694056        3.5458232068        2.2721599531
  C        15.0218340503        3.7124057812        0.8742580004
  C        15.9692029250        3.0456083359        0.1489794979
  C        16.1635797932        3.2921550045       -1.2102027904
  C        15.2589274819        4.0875246572       -1.8769773396
  H        15.4627394020        4.4048891640       -2.8838447290
  H        16.9414163067        2.8441422291       -1.8205298436
  H        16.6047480250        2.3232713338        0.6036375902
  H        14.8992912810        3.6923529785        1.9823523406
  C        13.0320173883        4.9049679330       -3.3161801621
  C        12.0960274880        3.9573051304       -3.8059017545
  C        12.1367783453        3.3710774930       -5.0338404257
  C        13.0568201452        3.8297838845       -5.9900511831
  C        13.8784975867        4.9272538542       -5.6047720636
  C        13.8252371457        5.4877507573       -4.2912016442
  H        14.4292340770        6.3242872696       -3.9898836335
  H        14.5575442678        5.3983819771       -6.3907422914
  H        13.2078718244        3.3961623693       -6.9374685101
  H        11.5353242901        2.5440431663       -5.3707673881
  H        11.4049000452        3.5349110134       -3.1459511431
