140

  C         2.4614319214        0.3957840229       14.6305105413
  C         3.4581436290        1.1213178203       15.3168865050
  C         4.6306194182        1.5357208749       14.5844820569
  C         5.7747099168        2.0618797846       15.2168661556
  C         6.8892557551        2.4746383244       14.5450577387
  C         3.4848937824        1.3470807161       16.9180488500
  C         2.7521345122        2.4205971581       17.4666674043
  C         2.8443937463        2.7759051306       18.8107458435
  C         3.7235011735        2.0539962821       19.6560227999
  C         4.5267129874        1.0952048361       19.1194012654
  C         4.3906763865        0.6670415149       17.8168991561
  H         5.6933723798        2.2331228229       16.2609423595
  H         7.7000030714        2.9986161503       15.0935303181
  H         2.2460333097        3.0770626024       16.7775536906
  H         2.2482549936        3.6694953520       19.1201531834
  H         3.7685785229        2.0944091459       20.7079077881
  H         5.0840331615        0.6088543486       19.9256767170
  H         4.9466523580       -0.1502966342       17.3652342336
  C         2.4143064031        0.3427405929       13.1855871817
  C         1.4100109960       -0.4627955734       12.5233918432
  C         0.2938961787       -1.0504634076       13.2333663680
  C         0.3151837425       -0.9237961683       14.6809892440
  C         1.3593809851       -0.2264217726       15.3306969859
  C         4.6065521546        1.4910147571       13.1250813746
  C         3.4808608242        0.9930729783       12.4135949054
  C         3.2648981151        1.4408736476       11.0246575145
  C         2.3053884852        2.3581245836       10.5837339304
  C         2.1990496373        2.5996866209        9.2119015315
  C         3.1206027896        2.0716695063        8.3101660978
  C         4.1964014887        1.2920558292        8.7364592531
  C         4.2264322348        0.8878579483       10.0853797258
  H         4.9516304887        0.2629279380       10.5585654848
  H         4.8889605569        0.8319067129        7.9929027996
  H         3.0535618758        2.2898908389        7.2246967768
  H         1.4547317824        3.1977662480        8.7846842369
  H         1.6313800793        2.8305831491       11.2874194297
  C         5.7170632716        1.9646284091       12.4069562648
  C         6.8502417189        2.4397964372       13.1391882009
  H         7.7282870770        2.7969025715       12.5287693662
  H         5.8171837334        2.0153192625       11.3023532377
  C         1.4490524989       -0.5483334667       16.8151939382
  C         2.4808154155       -1.4868314104       17.2773696017
  C         2.5648806028       -1.9686022703       18.6009393815
  C         1.5789230741       -1.5236043146       19.4919899864
  C         0.6144643532       -0.6210248648       19.1520641599
  C         0.5555083907       -0.1418598086       17.7809354983
  H        -0.1704136488        0.6177200715       17.5393077985
  H        -0.0874179315       -0.2365841347       19.8935245599
  H         1.5863666955       -1.9272336782       20.5051068085
  H         3.2065159230       -2.7372958869       18.9177584497
  H         3.2487023661       -1.8077576690       16.5865831012
  C        -0.7334890168       -1.6217182988       15.3841889954
  C        -1.7846118068       -2.3079547951       14.6872144032
  C        -1.7187894307       -2.4271957574       13.2364727175
  C        -0.6287738292       -1.9255414458       12.5718317894
  H        -0.4501673285       -2.3102953577       11.5584394547
  H        -2.3632413663       -3.1002612321       12.7054869275
  H        -2.4445791594       -2.9793560935       15.2031725382
  H        -0.6240843133       -1.8127075582       16.4576925026
  C         1.7113193284       -0.9430089202       11.0913933706
  C         2.8252733757       -1.7947689999       10.8080864203
  C         3.0939082028       -2.2776770262        9.4978861168
  C         2.2929162246       -1.8811482097        8.4146311896
  C         1.1925619322       -1.0762716946        8.6619052448
  C         0.9345659953       -0.5362006214        9.9476685679
  H         0.1158541770        0.1604915784       10.0644920248
  H         0.4884515699       -0.8279296499        7.9097697026
  H         2.5230177981       -2.3040333098        7.4586482701
  H         3.9005498600       -2.9543234100        9.4420409036
  H         3.5384157739       -2.1303887498       11.6033085963
  C        -1.1176663386        7.6074731948       14.7225600327
  C        -2.2673234832        8.2937578946       15.3150665923
  C        -3.3997088201        8.7667409862       14.5887542549
  C        -4.4746793337        9.5183155760       15.1779040595
  C        -5.3449432983       10.2475342599       14.3852537493
  C        -1.9959479449        8.7733650032       16.6760922580
  C        -1.0097993349        9.7225851212       16.8733219122
  C        -0.7053741655       10.1374426211       18.1650630231
  C        -1.3013205230        9.6038378619       19.2851107862
  C        -2.3769589589        8.6622955349       19.0988281756
  C        -2.7505370951        8.3164744371       17.7700168709
  H        -4.6001285370        9.4600866795       16.2433732877
  H        -6.2406469300       10.6362801819       14.9191627180
  H        -0.5155978432       10.1532287591       15.9897877091
  H         0.1320921362       10.8045038565       18.3444525547
  H        -1.0356979792        9.9201052364       20.3084880288
  H        -2.8988180239        8.2141648864       19.9631230006
  H        -3.5241232817        7.6039635125       17.5337277239
  C        -1.0930329785        7.5236447993       13.2309951097
  C        -0.0645675609        6.8112471133       12.6444450540
  C         1.0102199976        6.3075059396       13.3758956013
  C         1.0548310452        6.4597905999       14.8119817408
  C        -0.0483255655        7.0034172925       15.5343714052
  C        -3.2579749377        8.7804091089       13.1216349058
  C        -2.1551561979        8.1270662340       12.4703418139
  C        -1.8785742994        8.5470275167       11.0885270953
  C        -0.8875453997        9.5151697208       10.7932509305
  C        -0.7751751338       10.0174384279        9.4926213545
  C        -1.5901229955        9.5145744441        8.4566508034
  C        -2.4720269433        8.5174726105        8.7285113669
  C        -2.6008648594        8.0092581237       10.0014319363
  H        -3.3506338780        7.2405661388       10.2004294140
  H        -3.0154868951        8.0794894288        7.8704626523
  H        -1.5684572272        9.9787382668        7.4663582757
  H        -0.0502105703       10.7471035481        9.3165372579
  H        -0.1899911863        9.7299800933       11.5602165450
  C        -4.2063836551        9.5142917125       12.4002988198
  C        -5.1557523320       10.3364738465       13.0122703664
  H        -5.8526454695       10.8915305345       12.3989138211
  H        -4.2396255615        9.5035965807       11.3042957438
  C        -0.0635708602        6.7006394662       17.0412151499
  C        -0.9664271376        5.7387809077       17.4817088259
  C        -1.0412020244        5.3229676365       18.8278792843
  C        -0.1977700734        5.9089701526       19.7403383691
  C         0.9152287873        6.7272556148       19.3063681324
  C         0.9058578155        7.1402447034       17.9701006044
  H         1.6611861591        7.8301333971       17.6497048442
  H         1.6869138671        6.8998089481       20.0216398428
  H        -0.1750657605        5.5615800321       20.7488902064
  H        -1.7594571058        4.5833497497       19.0215740509
  H        -1.6030289182        5.2073327352       16.7623743043
  C         2.0557910977        5.7546216309       15.5311763064
  C         3.1492446616        5.1832101780       14.9129229834
  C         3.1223150258        5.0012737679       13.4599051299
  C         2.1186610169        5.5198813461       12.7243722094
  H         2.1258279607        5.3197775456       11.6826011840
  H         3.8696590626        4.3630380256       13.0465172760
  H         3.9313519318        4.7238171910       15.5278591126
  H         1.9286139336        5.7296499588       16.5988344055
  C        -0.1933079918        6.4258797959       11.1840500338
  C        -0.9529895758        5.2831211542       10.7543446253
  C        -1.0385388201        4.9472455328        9.4172775561
  C        -0.1646159404        5.5448746349        8.4942868082
  C         0.7362191879        6.4818076730        8.9066488740
  C         0.7304885363        6.9331084666       10.2450006677
  H         1.4745234089        7.5952869015       10.5386681629
  H         1.5430805321        6.8569960813        8.2923633345
  H        -0.1063905450        5.1904952347        7.4563855698
  H        -1.6198464270        4.1272126640        9.0960115366
  H        -1.6488644174        4.8063378519       11.4310455292
