140

  C         2.2192300710        0.3779748683       14.5423405035
  C         3.2662026937        1.0934379192       15.1790859424
  C         4.3309178183        1.7111633953       14.4614702846
  C         5.4945440743        2.2343062065       15.1649762190
  C         6.5132292544        2.8055888904       14.4642658633
  C         3.2043278681        1.4258850857       16.6176265901
  C         2.4059537803        2.5537892082       16.9318652635
  C         2.4825395086        3.0976937228       18.2104662552
  C         3.2316445233        2.4409925886       19.2338802609
  C         3.9425058746        1.2824290080       18.9767142176
  C         3.9080899091        0.7978132732       17.6937832933
  H         5.6297721039        2.2842618002       16.2272359256
  H         7.3486545386        3.3693262618       14.8792585779
  H         1.7514455703        2.9634024188       16.1762091535
  H         1.8473163343        3.9536942614       18.4954325347
  H         3.2925486880        2.7726782846       20.2552202215
  H         4.5532987806        0.7952665613       19.7350524435
  H         4.5889958941       -0.0198943095       17.4159950524
  C         2.0697397325        0.4455269081       13.0721436308
  C         1.0936666537       -0.3364414954       12.4362965183
  C         0.0655063760       -0.9297209119       13.1035735419
  C         0.1140772040       -0.8736631081       14.5444455952
  C         1.1809748745       -0.3498884503       15.2132754301
  C         4.2588495484        1.7017942496       13.0725340053
  C         3.1522526843        1.1263564183       12.3475047659
  C         3.1148051064        1.5131879820       10.8802985788
  C         2.2617819666        2.4973610590       10.3735661978
  C         2.3641099326        2.9005471763        9.0335311893
  C         3.2946788486        2.2327633572        8.1685144136
  C         4.1211324561        1.1624581972        8.6850712263
  C         3.9914231609        0.8682910995       10.0130599539
  H         4.5024392723       -0.0147765908       10.4068268379
  H         5.0018582491        0.8052654683        8.0709025848
  H         3.4302287445        2.5227869857        7.1030189090
  H         1.7596254602        3.7431155545        8.8495125779
  H         1.4924894552        2.9365954738       11.0025941819
  C         5.3887076466        2.2578949044       12.3625180171
  C         6.4323092954        2.7927775157       13.0168945485
  H         7.1536257049        3.3016046267       12.4250927319
  H         5.3591770229        2.1925681105       11.3169101019
  C         1.2176079573       -0.6986994770       16.6800569028
  C         1.9744751322       -1.8491694151       16.9881652427
  C         2.1203994977       -2.2668622314       18.3221631680
  C         1.2787332047       -1.7737135486       19.2523725313
  C         0.6028296182       -0.5951222043       19.0436793261
  C         0.6817373903       -0.0015140624       17.7580672625
  H         0.0736278401        0.9374875896       17.6502189729
  H         0.0099535421       -0.1349196948       19.8726097732
  H         1.2457250032       -2.3078223787       20.2362901101
  H         2.6793901848       -3.2093894115       18.5439204233
  H         2.4627464585       -2.3279485249       16.1716027456
  C        -0.9457237368       -1.5393870341       15.3097572546
  C        -1.9473624442       -2.1748187706       14.6355601181
  C        -2.0380584717       -2.1554532964       13.1769342163
  C        -1.0878421592       -1.5022821139       12.3953661547
  H        -1.1397988979       -1.6094415100       11.3047364505
  H        -2.9164282613       -2.6405463266       12.7837667398
  H        -2.8168294854       -2.6089276799       15.1034855271
  H        -0.9318970080       -1.5000752142       16.4323168169
  C         1.1006824813       -0.6221352925       10.9761775836
  C         1.8613819136       -1.7705506291       10.6410686062
  C         1.9604520538       -2.3038003511        9.3368596544
  C         1.2244763672       -1.7080689642        8.3074752649
  C         0.4361884042       -0.6425528310        8.6596458956
  C         0.3322317530       -0.0753853899        9.9884456056
  H        -0.4186333743        0.6820977591       10.1312643475
  H        -0.1600783310       -0.1405126981        7.8699117746
  H         1.2436619053       -2.1257051905        7.3301300634
  H         2.6673111553       -3.0623843138        9.1190372343
  H         2.4477484339       -2.1088382827       11.4760524069
  C        -1.4482360110        7.4645017844       14.6936559718
  C        -2.4914458922        8.1944619814       15.3462229975
  C        -3.5904204895        8.7267905235       14.5968593496
  C        -4.6728775698        9.4824201620       15.2334134048
  C        -5.7232888737       10.0141206002       14.5481763462
  C        -2.3611071059        8.6065982291       16.8109975718
  C        -1.5704052029        9.6788582526       17.1958274469
  C        -1.5241436105       10.2893050373       18.4607916242
  C        -2.3242941465        9.6833899230       19.4903010369
  C        -3.0925371588        8.5115524130       19.1971620099
  C        -3.1271665554        8.0271906486       17.9193220882
  H        -4.7246819992        9.4177324208       16.3242339584
  H        -6.5464691532       10.4892659427       15.0715359171
  H        -0.8822743243       10.1382701745       16.4732100612
  H        -0.9321516895       11.2110041474       18.6630507877
  H        -2.3898099166       10.0944862373       20.4985724892
  H        -3.7017752243        8.0998309119       20.0360536348
  H        -3.7989869003        7.1801073211       17.8417667316
  C        -1.4428631071        7.4216254131       13.2069387284
  C        -0.4295652398        6.6903418651       12.4751314564
  C         0.6755261268        6.1568118557       13.2024425595
  C         0.7261071226        6.2488589309       14.6625240607
  C        -0.3174122202        6.8626975460       15.3823217764
  C        -3.4936337066        8.8607391405       13.1285546631
  C        -2.4153603111        8.1723225892       12.4606859751
  C        -2.2331445555        8.5890470222       10.9719212523
  C        -1.4689140714        9.7058352895       10.6151472411
  C        -1.5136197108       10.2540093710        9.3171712619
  C        -2.3502249364        9.6340896647        8.3860756548
  C        -3.1272870054        8.5083568556        8.6831379871
  C        -3.0969125901        7.9995133537       10.0086608529
  H        -3.6479530726        7.0712647579       10.2334425948
  H        -3.8007258860        8.1579831121        7.8761565239
  H        -2.3090897165        9.9428743806        7.3186519265
  H        -0.8352930048       11.0649060914        8.9959851843
  H        -0.8523322041       10.1958945137       11.3585283918
  C        -4.5959960606        9.5615319822       12.4789778694
  C        -5.6703749063       10.0971829467       13.1424119578
  H        -6.4197966171       10.6149021182       12.5443484363
  H        -4.5990807037        9.7018833787       11.3811673238
  C        -0.2935421725        6.5684898067       16.8242632518
  C        -1.2420653906        5.5798741286       17.1775412272
  C        -1.2398536173        5.0492751367       18.4589648800
  C        -0.3716296066        5.5481799893       19.4371110156
  C         0.4861902844        6.5697429597       19.0739944309
  C         0.5065452456        7.1273037334       17.7934055050
  H         1.2195911476        7.9462481789       17.5471507339
  H         1.1877333100        6.9587052583       19.7969631519
  H        -0.4391997074        5.0656526543       20.4263675381
  H        -1.9873658039        4.3354091108       18.7612492639
  H        -1.9944628037        5.1489959664       16.4245812347
  C         1.9066946370        5.7070375882       15.3366337198
  C         2.9626402519        5.1243041784       14.6456931673
  C         2.8836931793        5.0833399189       13.2309032672
  C         1.8042964100        5.6549256950       12.5015265227
  H         1.8515709209        5.6585651478       11.4259720412
  H         3.6256356684        4.6215838243       12.6405395350
  H         3.7501880867        4.6216222199       15.2386317769
  H         1.8530208812        5.6471963260       16.4357429716
  C        -0.5778378584        6.4430799239       10.9341680012
  C        -1.1257529978        5.2326774472       10.4258530026
  C        -0.9749677155        4.8534734870        9.0402562789
  C        -0.1566581323        5.6724810196        8.2534257469
  C         0.4603449248        6.8123472071        8.7713027667
  C         0.2013482561        7.2198085515       10.1167033609
  H         0.7475238670        8.0757346855       10.4731490356
  H         1.0896968964        7.4628245459        8.1394653644
  H        -0.0993396924        5.4205737260        7.2225901152
  H        -1.4855033059        4.0064959938        8.5683155254
  H        -1.5637011648        4.5757977111       11.1616648754
