140

  C        14.6762299160       -0.4895344839        0.7121863626
  C        15.7468229570        0.2655352269        1.3063621594
  C        16.6861934941        0.8954978451        0.4948143302
  C        17.6904798121        1.7170905330        1.0530648634
  C        18.6143397633        2.3981176362        0.3548595012
  C        15.5183365757        0.7845738396        2.6566277062
  C        14.7635628231        1.9859011525        2.7997812746
  C        14.6684074732        2.6272409685        4.0174716272
  C        15.2415645303        2.1099355993        5.1420608884
  C        16.1453802983        1.0564730103        5.0090779531
  C        16.2491013931        0.4017460233        3.7852532730
  H        17.7313625568        1.9579591511        2.1108150254
  H        19.3086360420        3.0734732787        0.8368606720
  H        14.2980359097        2.4484574782        1.9778417595
  H        14.1820625452        3.5997118901        4.0733207577
  H        15.2361217827        2.7926151668        6.0469634587
  H        16.8496362599        0.8691927776        5.8810670595
  H        16.7781411706       -0.5134786346        3.7366824163
  C        14.5588626405       -0.5208439981       -0.7136738318
  C        13.5136677704       -1.2468966562       -1.3168467057
  C        12.3547404434       -1.6125265415       -0.5417233036
  C        12.4029964555       -1.5196361898        0.8951229345
  C        13.6191874612       -1.0816539530        1.5205649346
  C        16.6064778410        0.8943527677       -0.9879830427
  C        15.5279602266        0.1595323808       -1.5352450306
  C        15.2305170186        0.5412149026       -2.9767008549
  C        14.5852228934        1.7698654750       -3.2537922024
  C        14.7049297909        2.3839941867       -4.4941941149
  C        15.4772717567        1.7223667000       -5.5208554243
  C        15.9642117056        0.4423451957       -5.3022786951
  C        15.7731927755       -0.1716005253       -4.0920422527
  H        16.2102378619       -1.1718470235       -4.0193455191
  H        16.3623442674       -0.1319217396       -6.1413762684
  H        15.6312052600        2.2274680994       -6.4499597783
  H        14.3165131153        3.3999131077       -4.6073683230
  H        14.1130982146        2.3036836886       -2.4317224857
  C        17.6501742888        1.5503932256       -1.6880063895
  C        18.6695061569        2.2254944020       -1.0625995193
  H        19.4081199476        2.7672092336       -1.5925156582
  H        17.5596649689        1.5297671848       -2.8135062328
  C        13.7473671406       -1.3895679163        2.9601715219
  C        14.7053632861       -2.4898069609        3.4015126082
  C        14.6008250516       -2.9649890600        4.7243036807
  C        13.7531786127       -2.3376343318        5.6573038164
  C        13.0918587568       -1.1822088889        5.2737385324
  C        13.0265132233       -0.8114288167        3.9307194085
  H        12.3276104096       -0.0499018951        3.6124609206
  H        12.4915136523       -0.5914755956        6.0250477214
  H        13.8405139362       -2.5389214587        6.7083863903
  H        15.2614358533       -3.8101980079        5.0922030663
  H        15.3304025959       -2.7163893311        2.5672283736
  C        11.3468511102       -2.2261514737        1.5963195451
  C        10.3391399574       -2.8894784520        0.9195954377
  C        10.2174228385       -2.9026251839       -0.4871882805
  C        11.1604581536       -2.2076076131       -1.1472832445
  H        11.2711699086       -2.2510476990       -2.1976237997
  H         9.3446841344       -3.3755166400       -0.9590314637
  H         9.5939667202       -3.5400855287        1.4174301760
  H        11.3661438033       -2.1977051149        2.6925050667
  C        13.3668228040       -1.5235221643       -2.8061172916
  C        14.0137438388       -2.6646933915       -3.2593924998
  C        13.9369744045       -2.9825784342       -4.6031154882
  C        13.1002443827       -2.1948452264       -5.4446114593
  C        12.3425157241       -1.1479128115       -4.9277967563
  C        12.5228564644       -0.7420084845       -3.6190729761
  H        12.0138096866        0.0363131634       -3.1312452926
  H        11.6033360854       -0.7219501320       -5.5319248071
  H        12.9131330256       -2.4836218624       -6.4969505165
  H        14.3770888605       -3.9163039028       -4.9700439664
  H        14.6870953115       -3.1983415388       -2.5703350402
  C        10.9435572477        6.8132714887        0.8700038739
  C         9.9704241192        7.5052375192        1.6403827286
  C         8.8379809581        8.1401276966        0.9378671740
  C         7.8562112353        8.9762710997        1.5803726219
  C         7.0093267994        9.8010813784        0.8187941925
  C        10.0664880950        7.9089420420        3.0858670328
  C        10.8304603525        9.0185269305        3.2782180912
  C        10.7872695121        9.7702899290        4.4663657160
  C        10.0047384453        9.3170931233        5.5105413381
  C         9.2681233712        8.0705507795        5.3704255887
  C         9.3433035856        7.3801680380        4.1154308469
  H         7.7411042038        9.1347029551        2.6913761877
  H         6.3608249074       10.4947899003        1.4034998793
  H        11.4835914470        9.2419188611        2.5516723599
  H        11.3417803370       10.7433929762        4.5869661992
  H        10.0355434279        9.8485380732        6.4525604110
  H         8.6750090312        7.6278305506        6.1897833157
  H         8.7335202854        6.5127604054        4.0764096800
  C        10.9662880020        6.9523856029       -0.6383504698
  C        11.8429989039        6.1461087518       -1.3510957663
  C        12.9571958706        5.5671174985       -0.7411556888
  C        13.0287072708        5.5494117091        0.7172356335
  C        11.9510991505        6.0204826591        1.5323932502
  C         8.8981886752        8.2953403552       -0.5343102956
  C         9.8808683153        7.6597185024       -1.3083404099
  C         9.8156026270        8.0238438492       -2.7662263673
  C        10.5064620711        9.1409590296       -3.2313964996
  C        10.2282981129        9.6151321445       -4.5407698898
  C         9.3694931841        8.8889384348       -5.3830146154
  C         8.7755691824        7.7292269232       -4.9546971001
  C         8.8877190774        7.3844144044       -3.6281866693
  H         8.3691227859        6.4079548341       -3.3484089483
  H         8.2680201873        6.9753200448       -5.5476804059
  H         9.0760864083        9.2020967758       -6.3941677856
  H        10.5398731117       10.6448356428       -4.8890969183
  H        11.1711217815        9.6031440690       -2.5000961650
  C         7.8529702867        9.0118136224       -1.2433120953
  C         6.9156214164        9.7429329512       -0.5992834387
  H         6.1634796241       10.3893461042       -1.0781499202
  H         7.7342238475        9.0282843954       -2.3673171006
  C        11.9291523683        5.7057319890        2.9722267166
  C        11.1259006412        4.6879467819        3.3976604785
  C        11.0948899749        4.2915755207        4.7327365364
  C        11.9384268769        4.9099004421        5.6656513603
  C        12.8263724904        5.8736236975        5.1645231765
  C        12.7718596175        6.2858712986        3.8399830270
  H        13.4255200325        7.0310561032        3.4239295042
  H        13.5604054443        6.3849016582        5.8091499599
  H        11.8526798857        4.6260668230        6.7108040120
  H        10.4972523615        3.4149703826        4.9509432102
  H        10.6698067587        4.1125985587        2.5677870177
  C        14.2636852310        5.1019097999        1.3271168931
  C        15.2692946410        4.5713060639        0.5766062031
  C        15.0546750633        4.4856265462       -0.8256678324
  C        13.9330355056        4.8580499197       -1.4540710145
  H        13.7819723466        4.6110320284       -2.5219939206
  H        15.7476224079        3.8951216028       -1.4190363233
  H        16.2343360242        4.2294419818        0.9316357346
  H        14.2403041536        5.1638409653        2.4203421638
  C        11.8110557146        5.9580833733       -2.8561186156
  C        11.2516626758        4.7879279191       -3.4442166373
  C        11.2872348788        4.6847352393       -4.8214216867
  C        11.9384611334        5.6335942017       -5.6627769699
  C        12.5660608099        6.6632237830       -4.9939854104
  C        12.5102430807        6.8450903450       -3.6092136354
  H        12.9813755805        7.6149590387       -3.0502947781
  H        13.1236973864        7.4299331430       -5.5457545696
  H        12.0697057659        5.4633703853       -6.7433542747
  H        10.7118987060        3.8300177943       -5.3368703276
  H        10.7189361466        4.1273071471       -2.7764420285
