140

  C         4.1445950901       -0.0590299272       15.2870592369
  C         5.2883900074        0.5533441254       15.9692695787
  C         6.4096833812        1.1155313226       15.2530507499
  C         7.5681856174        1.6075550152       15.9845466732
  C         8.5454954578        2.2940459468       15.2901962622
  C         5.3203326831        0.8667612440       17.4342429117
  C         4.8216351507        2.1133077170       17.8028134573
  C         5.0949976062        2.6935343616       19.0357512011
  C         5.8662641599        2.0487147931       19.9867445284
  C         6.2710332785        0.7561008859       19.6708040979
  C         6.0366012382        0.1613190989       18.4303359625
  H         7.6403375920        1.5857871780       17.0425777324
  H         9.3516837237        2.7612225818       15.8374406802
  H         4.2354279029        2.6351495053       17.0888570497
  H         4.6297003070        3.6353060131       19.3355700067
  H         5.9862255959        2.3670615609       21.0336939759
  H         6.7533568271        0.1968746387       20.4356215079
  H         6.5020201269       -0.7794794272       18.1748859551
  C         4.2392842042       -0.0535823583       13.8186713920
  C         3.1406329963       -0.8033076278       13.1353052095
  C         2.0525592670       -1.3411683704       13.8526898049
  C         2.0137078592       -1.3409749687       15.3052452743
  C         3.0729580510       -0.7222717818       16.0114583911
  C         6.2853296197        1.1842869691       13.8560111038
  C         5.2345815057        0.6654422369       13.1360771806
  C         5.1038288303        0.9816272672       11.7338582178
  C         4.2473485661        2.0081422659       11.3353175813
  C         4.2706492476        2.6758135306       10.0842990687
  C         5.0832041649        2.0697814082        9.0660437627
  C         5.9608913802        1.0502510322        9.4590420196
  C         5.9152835422        0.4592347023       10.7412563181
  H         6.5671039153       -0.4172025009       10.8750333268
  H         6.5980484659        0.6194663082        8.6662425304
  H         5.1413371310        2.4802744788        8.0465996173
  H         3.5659613824        3.4394526320        9.8642136152
  H         3.5486263062        2.4972041155       12.0520926993
  C         7.3373142457        1.9346803791       13.2302610118
  C         8.4365597065        2.4208059699       13.8605600103
  H         9.1203207939        3.1050063693       13.3383170314
  H         7.2550123000        2.1499745733       12.1501167044
  C         3.1192862038       -1.0179666670       17.4478182136
  C         3.6177155051       -2.2448836438       17.9293660516
  C         3.7352354639       -2.5213835273       19.2588805666
  C         2.9913039994       -1.7473001919       20.2180025827
  C         2.4004000265       -0.5801405167       19.7310220470
  C         2.4583178946       -0.1734392479       18.3746528623
  H         2.1534006350        0.7955465587       18.1063842266
  H         1.9337237507        0.1290530941       20.4181761652
  H         3.0054139678       -1.9899791931       21.2606221916
  H         4.2624956181       -3.4126871873       19.6688752138
  H         4.0137089529       -2.9135569157       17.1997598151
  C         0.9019644352       -1.9733228794       16.0194609675
  C        -0.1206851736       -2.5569056238       15.2838924171
  C        -0.0812435101       -2.5967695236       13.8841819654
  C         0.9859078171       -2.0642194982       13.1901274026
  H         0.9750771126       -2.1855565467       12.1764993080
  H        -0.7747654296       -3.2778150163       13.4368631428
  H        -0.8653685134       -3.1637100375       15.8633228618
  H         0.8685194290       -2.0139673613       17.1308078924
  C         3.2004931816       -1.1542719482       11.6618164050
  C         4.0475960024       -2.1896530615       11.1542160284
  C         3.9697151714       -2.6146133445        9.8522048984
  C         3.0866053430       -2.0931647138        8.9336288690
  C         2.0838750278       -1.1753152551        9.4271301972
  C         2.2327401025       -0.6788197714       10.7508660721
  H         1.5335392220        0.1055154390       11.0225258645
  H         1.2923141525       -0.8266789539        8.7447568859
  H         3.1664092058       -2.3610703961        7.8647512664
  H         4.6176077828       -3.4149179586        9.5036297273
  H         4.6952524706       -2.7198309576       11.8353856354
  C         0.6963656180        7.3834423336       15.6440755673
  C        -0.4890611216        7.9038728561       16.3508345576
  C        -1.6211102537        8.3279654798       15.6339243955
  C        -2.7999858612        8.7965967163       16.2473210962
  C        -3.7608752817        9.4153076393       15.4508499404
  C        -0.4577709022        8.2891621266       17.8570305503
  C         0.2024499768        9.4974712188       18.1301299767
  C         0.1141591881       10.1180659282       19.4200152946
  C        -0.5274943057        9.4622136943       20.4419345653
  C        -1.1573213756        8.1901952442       20.2072940986
  C        -1.1729749506        7.6434986405       18.9268687706
  H        -3.0002344780        8.7784224832       17.3362349927
  H        -4.6937292383        9.8856851820       15.8774988616
  H         0.7484309839        9.9923688073       17.3545043726
  H         0.7013698608       10.9886672478       19.5524195302
  H        -0.6579819110       10.0540186412       21.3367085026
  H        -1.5348335642        7.6335923002       21.0638328367
  H        -1.7258101727        6.7335449415       18.7523598149
  C         0.7538061186        7.2770129317       14.1473344746
  C         1.7812968449        6.5341440498       13.5083630510
  C         2.8321563366        5.9854172708       14.3116987148
  C         2.8382336070        6.1556910408       15.7402774791
  C         1.7120145771        6.7916294161       16.4033821785
  C        -1.5196464037        8.2511422596       14.1863954838
  C        -0.3800934728        7.8233176442       13.4573678427
  C        -0.1615389184        8.2153111096       12.0552175243
  C         0.8625866329        9.1086397211       11.9409867746
  C         1.2537586758        9.6861231212       10.6834504948
  C         0.4564945074        9.3669022429        9.5361472296
  C        -0.5614818722        8.4415882589        9.6566128799
  C        -0.9085467879        7.9426493581       10.9471946296
  H        -1.8496054083        7.3868656237       11.0986164219
  H        -1.2204474749        8.3843705755        8.8294585903
  H         0.7455487101        9.8005507098        8.6203526821
  H         2.0107986658       10.4796325375       10.6370251266
  H         1.4467018766        9.3383983396       12.8086941551
  C        -2.6062257469        8.7866354420       13.4126925292
  C        -3.6759650487        9.3464603303       14.0304278012
  H        -4.5183887648        9.7588033407       13.4889123904
  H        -2.5008685748        8.7389713933       12.3449712098
  C         1.5482236921        6.4256431369       17.8819048359
  C         0.7950203710        5.2920228345       18.1210214262
  C         0.7578399541        4.7238335835       19.3658423553
  C         1.4984969665        5.2847586817       20.4384454532
  C         2.3223732411        6.4035422055       20.1590688958
  C         2.3115573426        6.9787237699       18.8831763724
  H         2.9525168095        7.8653123854       18.6850095849
  H         3.0300229778        6.7317677499       20.8921393148
  H         1.6981677024        4.8187380384       21.4333295490
  H         0.2766743224        3.7410575241       19.3886455785
  H         0.2534939148        4.8214665801       17.2920117192
  C         3.8306336148        5.4578678548       16.4967866376
  C         4.8906447056        4.8710941900       15.8343505495
  C         4.8119006783        4.5924193333       14.4919516025
  C         3.7122536712        5.0223888288       13.7630827065
  H         3.5367301382        4.6507897117       12.7506419400
  H         5.5832228198        4.0094410532       13.9680675426
  H         5.7103167464        4.5245205100       16.4684487427
  H         3.9000094489        5.5628019300       17.5307769038
  C         1.6285888637        6.0732823353       12.0487928072
  C         0.5917340579        5.1630682049       11.7874464964
  C         0.4797974491        4.6235059601       10.4953639054
  C         1.3747172224        4.9673251346        9.4574440268
  C         2.3427058980        5.8797324725        9.7599316456
  C         2.4764257719        6.4773493404       10.9312104996
  H         3.2081504618        7.2862349250       10.9596046279
  H         3.0909041352        6.1982426830        8.9668947619
  H         1.1715211844        4.4821335894        8.5167092207
  H        -0.3452135624        3.9569329266       10.1998964706
  H        -0.1479331849        4.8728648802       12.5347933194
