140

  C        15.3491902560       -0.1442551942        2.3529834627
  C        16.3761056639        0.6505499031        3.0024674580
  C        17.4470379248        1.1259828757        2.2595967167
  C        18.6277443228        1.7085692977        2.8870337300
  C        19.5998975759        2.2582688828        2.1322465931
  C        16.3611761929        1.0827017287        4.4255319170
  C        15.6570121029        2.2848029345        4.9334291794
  C        15.5841736347        2.5858139766        6.2999939629
  C        16.2546749118        1.8630844758        7.2946329432
  C        16.9762811258        0.8215544367        6.7887130483
  C        17.0180510473        0.3686353812        5.4914281886
  H        18.7055963418        1.8539855484        3.9434754193
  H        20.3978172045        2.8117825378        2.6626112402
  H        15.1830652078        2.7064148303        4.0519088732
  H        15.0380884869        3.5168065925        6.6316002039
  H        16.1478922451        1.9848650906        8.4240874151
  H        17.5358982815        0.2103443180        7.4985998313
  H        17.7107846624       -0.4483236824        5.2521623609
  C        15.2892332314       -0.1591717665        0.8626396300
  C        14.2834286950       -0.8690500393        0.1392704658
  C        13.2099503633       -1.4658109462        0.8492697683
  C        13.1977126500       -1.4766568569        2.3042635509
  C        14.2426931163       -0.8472536459        3.0281804449
  C        17.3978885219        1.1498273972        0.7464458286
  C        16.2981136168        0.5318514483        0.1359066108
  C        16.1422179251        0.9179111824       -1.2934928629
  C        15.2083327904        1.9028041385       -1.5899117525
  C        15.1220942687        2.4041003623       -2.9116574696
  C        16.0848491727        2.0823814190       -3.8780849356
  C        16.9897035807        1.0525780757       -3.5451690369
  C        16.9869446200        0.4238088067       -2.3062389057
  H        17.8565844270       -0.2357337366       -2.1123283701
  H        17.7107427393        0.7602654682       -4.2750601075
  H        16.1586374274        2.5591956740       -4.8504090259
  H        14.4531462905        3.2261128839       -3.0554355161
  H        14.6177505883        2.3555225862       -0.8346998147
  C        18.4155123002        1.8116380397       -0.0022560989
  C        19.5468516639        2.2855769847        0.7125023270
  H        20.2714281239        2.9315372550        0.2676156817
  H        18.3762279890        1.9419676155       -1.0839086443
  C        14.3106897924       -1.1249885916        4.4812782248
  C        15.0480308647       -2.1970494383        4.9395856992
  C        15.0719516057       -2.5053544140        6.2848606451
  C        14.3061859303       -1.8144589140        7.1858557654
  C        13.6819419297       -0.6515963229        6.8112075981
  C        13.5823872275       -0.3179906325        5.4384801937
  H        13.0797950904        0.5765640015        4.9617773943
  H        13.1185627478       -0.0233691662        7.4931527031
  H        14.3128281553       -2.0792419767        8.3261440493
  H        15.7061487990       -3.2668842070        6.7179720331
  H        15.8053437855       -2.6022233556        4.2422913499
  C        12.1131586589       -2.1572703466        2.9415410782
  C        11.2279763545       -2.9920168598        2.2536330573
  C        11.2982632485       -2.9981610906        0.7631523222
  C        12.2603292687       -2.2539761744        0.1168814464
  H        12.3856752830       -2.3608157564       -0.9551838236
  H        10.6860282584       -3.7134703497        0.2153169553
  H        10.4219969969       -3.5399079097        2.6908147138
  H        12.1878173599       -2.1867639414        4.0329248351
  C        14.4484089239       -1.2510625561       -1.2740464871
  C        15.2581380007       -2.3555138418       -1.6138814175
  C        15.0992126485       -2.9540044450       -2.8819830357
  C        14.2126467079       -2.3033807233       -3.8347341792
  C        13.4625094280       -1.1537488322       -3.5272463408
  C        13.5724849811       -0.7045257076       -2.2473453296
  H        13.0117273140        0.1736021597       -1.8944955485
  H        12.8142682747       -0.7101157575       -4.2293695344
  H        14.2369854686       -2.7625254395       -4.8274570152
  H        15.6078553881       -3.9465866481       -3.0225870953
  H        15.9063835913       -2.8275032786       -0.8929356731
  C        11.7124831157        6.9816459506        2.1890345783
  C        10.6833128974        7.7302820376        2.8605246591
  C         9.6414043752        8.3448461949        2.1942940688
  C         8.5953148667        9.0948486371        2.8403751235
  C         7.6059007228        9.6700472269        2.1069154951
  C        10.8328273976        8.0267597849        4.3207322024
  C        11.8741675786        8.8992732554        4.6370127535
  C        11.9151990799        9.4595378480        5.9271656020
  C        10.9369712934        9.1170315745        6.8719805671
  C         9.8997304149        8.2542892398        6.5044610093
  C         9.8413151077        7.7601576805        5.2243678290
  H         8.5411838937        9.0660865785        3.9359195073
  H         6.8203088353       10.1756489565        2.7596275879
  H        12.6476894652        9.2056899927        3.9680524982
  H        12.7224897824       10.1596666677        6.1806003633
  H        10.9534417753        9.5444155496        7.9566814179
  H         9.0650357291        8.1364573481        7.2125352365
  H         9.0982157802        6.9496158450        4.9067073475
  C        11.7057449749        6.9470714067        0.7454293313
  C        12.7244482191        6.3004027019        0.0158668738
  C        13.8225466595        5.7316434824        0.7412480549
  C        13.7963057867        5.7383372822        2.1877112767
  C        12.7640403644        6.4117681646        2.9253959059
  C         9.6022936148        8.2512938986        0.7504876426
  C        10.6974454926        7.7288973283        0.0389344064
  C        10.8692548764        8.1765254748       -1.3512727080
  C        11.8130092904        9.1225539775       -1.7609540630
  C        11.7077833172        9.6267403897       -3.0667149818
  C        10.7021074412        9.1628374477       -3.9551029992
  C         9.8544425345        8.1401869419       -3.5719397171
  C         9.9478680234        7.6431923816       -2.2817555822
  H         9.3725037856        6.8710559061       -1.8288166604
  H         9.1910501999        7.5816344743       -4.3157135589
  H        10.7420043308        9.4654815093       -5.0114244536
  H        12.2084780940       10.5944863240       -3.2694969354
  H        12.5031813277        9.4771156818       -1.0064642454
  C         8.5210111347        8.9157399703        0.0389155105
  C         7.5287016788        9.5799067230        0.6991763258
  H         6.8042266353       10.1494927960        0.1248343908
  H         8.5311461544        8.9051943538       -1.0103032005
  C        12.6789257494        6.0477620242        4.3707095683
  C        11.7287110218        5.1353804697        4.8182323122
  C        11.7239542816        4.7944140725        6.1650776800
  C        12.6690788258        5.2798872232        7.0842183070
  C        13.7401490098        6.0002859621        6.6304156014
  C        13.6382243171        6.4225065897        5.3340545759
  H        14.4753249264        6.9917128536        4.9502508504
  H        14.5904706704        6.3851688425        7.2053651475
  H        12.5509713481        5.0714102849        8.1341617809
  H        11.0913595618        4.0500051426        6.6130964365
  H        10.9706756805        4.6882758170        4.2325886472
  C        14.9490211209        5.1285500235        2.7946209477
  C        16.0118100927        4.5905235805        2.1338938042
  C        16.0439400460        4.7782862660        0.7058772631
  C        14.9540755495        5.1895647942        0.0146994875
  H        14.9282116064        5.2914755566       -1.0372161014
  H        16.8258627367        4.2448582291        0.1677059573
  H        16.8735181618        4.2268442210        2.6704639511
  H        14.9885517387        5.0060669276        3.9052411159
  C        12.7586330953        6.0925881115       -1.4606896776
  C        12.0109238990        4.9730653114       -1.9331154413
  C        12.0529845045        4.7075797736       -3.3594282664
  C        13.0397099145        5.2732715553       -4.1123137584
  C        13.8146088427        6.3178098933       -3.6426797129
  C        13.7352285392        6.6830627292       -2.2864291218
  H        14.3133859828        7.5141003282       -1.8365455784
  H        14.6920169629        6.7033569134       -4.0761327828
  H        13.2239200842        5.0290221267       -5.1565655724
  H        11.3712039432        3.9484237600       -3.6935709576
  H        11.3761452107        4.5275150550       -1.1926838246
