140

  C         3.7676647198        0.1197226742       15.2240637752
  C         4.7287593769        0.8219525055       15.9422520345
  C         5.9147643855        1.3088759457       15.3233246719
  C         6.9901932919        1.8562950754       16.1000367261
  C         8.0671433311        2.4682634319       15.4322094646
  C         4.5742437580        1.1028446574       17.4212648416
  C         3.8247515402        2.2114054495       17.7533940836
  C         4.0084197126        2.8019326557       19.0232127288
  C         4.8471958560        2.1865190653       19.9533792056
  C         5.5587565953        1.0201862759       19.5912668598
  C         5.4738901846        0.4690398773       18.3466036094
  H         6.9582798793        1.8036874694       17.1676423592
  H         8.9359024311        2.8864871026       15.9396258559
  H         3.1409771913        2.6206759947       16.9832713453
  H         3.4765581946        3.7141303490       19.2531355914
  H         4.9757362218        2.7313338648       20.9206771617
  H         6.2697739607        0.6454890158       20.2760637064
  H         6.0234496327       -0.4093592308       18.0949981489
  C         3.8848319967        0.0939809696       13.7446840461
  C         2.9184931954       -0.6799869442       12.9645417893
  C         1.8093721571       -1.2230815597       13.5832733384
  C         1.6590983642       -1.2022692092       15.0317831527
  C         2.7110652424       -0.7050162529       15.8462565500
  C         6.0114788805        1.3263238112       13.8924027634
  C         5.0045523366        0.6940221945       13.0869047535
  C         4.9703430717        1.1521715700       11.6996833613
  C         4.1881931206        2.3204257853       11.3085801266
  C         4.2273793051        2.7373755109       10.0073960599
  C         5.0424846769        2.0705875496        9.0197438654
  C         5.8325301583        1.0092496301        9.4269769296
  C         5.8549548529        0.6059544615       10.7693471108
  H         6.4601129514       -0.2265023575       11.0896599117
  H         6.2695595302        0.4655908861        8.6143116272
  H         4.9674426485        2.2824039255        7.9635960667
  H         3.4328302460        3.4053372540        9.6636689455
  H         3.4995833305        2.7952281050       11.9829726058
  C         7.1145615751        2.0000983278       13.2687589096
  C         8.1175295927        2.5437247393       14.0422352538
  H         8.9842354483        2.9836253252       13.5597637301
  H         7.2773237799        1.8282599367       12.1966369190
  C         2.6935248278       -1.0888937397       17.2537791931
  C         3.6709726852       -2.1201274473       17.6351871628
  C         3.7994886146       -2.5727014371       18.9112352284
  C         2.8728273599       -2.1469148716       19.8810802186
  C         1.8494076400       -1.2050644850       19.5705482258
  C         1.7462131844       -0.7026717006       18.2484986077
  H         0.9609444806       -0.0477453256       17.9558495655
  H         1.1513361871       -0.8641914752       20.4017811719
  H         2.8857828365       -2.5392088520       20.8769130861
  H         4.6367166729       -3.2825063401       19.1900049447
  H         4.3250213369       -2.4653534086       16.8398721216
  C         0.5435538877       -1.9158229704       15.6469158896
  C        -0.2820948954       -2.5224130612       14.7861362197
  C        -0.2552343202       -2.4598778709       13.3345973738
  C         0.7268118884       -1.6885172067       12.7811358500
  H         0.6816056758       -1.7032084225       11.7182323135
  H        -1.0233327059       -2.9956160777       12.7382954822
  H        -1.2333929051       -2.9099266492       15.1353038707
  H         0.3824216366       -1.9446065271       16.7142095282
  C         2.9926097329       -0.9808392197       11.4329778971
  C         3.6845388712       -2.1187950648       11.0767963923
  C         3.6905659136       -2.5368450793        9.7261645004
  C         2.9737376882       -1.7838397504        8.8097387042
  C         2.2920963297       -0.6074459317        9.1793675701
  C         2.2812630522       -0.2251493498       10.5127244752
  H         1.6546691052        0.6198416437       10.8091506538
  H         1.7184550600       -0.0082556954        8.4824798553
  H         2.9291459230       -2.0097567559        7.7057660554
  H         4.1436780600       -3.4812767758        9.3862829615
  H         4.1627507497       -2.7188461493       11.8399823043
  C         0.2967163127        7.3433506556       14.9585786459
  C        -0.6963209206        8.1106485647       15.6647959106
  C        -1.8118130829        8.5904810077       14.9667480254
  C        -2.9472882669        9.1696436142       15.6337356795
  C        -4.0890013957        9.4959202275       14.9883765739
  C        -0.6084431395        8.4534168742       17.1917039106
  C         0.2966667027        9.4778384622       17.5073745737
  C         0.3932641248       10.0341912670       18.7936450052
  C        -0.3179587855        9.5036106130       19.8539086472
  C        -1.2690100669        8.5210910805       19.5358966762
  C        -1.4760305634        8.0664744030       18.2418176290
  H        -2.6307033937        9.3851356293       16.6626449966
  H        -5.0024405224        9.6568997256       15.5809141834
  H         0.8782533798        9.9233196896       16.7200592940
  H         1.0902757744       10.8306346845       18.8390937499
  H        -0.1943848801        9.7292754840       20.9157671540
  H        -1.8866910952        8.1287069623       20.3660521234
  H        -2.1986935133        7.3122844574       17.9511781547
  C         0.2875404331        7.3352230152       13.4709341429
  C         1.2874340099        6.5680400249       12.6966635101
  C         2.3432364139        5.9714479568       13.4505473570
  C         2.3820415367        6.0755090459       14.8965207528
  C         1.3716490013        6.6517333029       15.6579725526
  C        -1.8615780864        8.5679825794       13.5498720626
  C        -0.7759760457        8.1009069282       12.8367967839
  C        -0.6746439867        8.4062066869       11.3772821144
  C         0.1560338787        9.4163356959       10.8971780700
  C         0.1544662136        9.7611554430        9.5615209811
  C        -0.6559662704        9.1751852224        8.6344302315
  C        -1.5921114750        8.2090082653        9.1085736417
  C        -1.6109734677        7.8041774312       10.4513133702
  H        -2.3321246729        7.0108651405       10.7679647402
  H        -2.2634399410        7.7412789818        8.3466063795
  H        -0.7064257441        9.4867203503        7.6143578210
  H         0.8002656061       10.5976233418        9.2886361710
  H         0.8603358447        9.8590720382       11.5854238507
  C        -3.0377591277        9.1236570196       12.8797919565
  C        -4.1585675389        9.4674338819       13.6125973678
  H        -5.1119389447        9.7424272019       13.1608044265
  H        -3.1620500161        9.0252518747       11.8176559490
  C         1.3232308461        6.3542828363       17.1274085280
  C         0.4550935818        5.3003978784       17.5840365190
  C         0.3816503170        5.0054861272       18.9228959964
  C         1.1556325724        5.6913773446       19.8814950258
  C         2.0078431269        6.7032117098       19.4411130159
  C         2.0863768428        7.0504788105       18.0856419766
  H         2.7082796018        7.8605173847       17.7510205091
  H         2.6426858180        7.2111183509       20.2020055014
  H         1.2265039255        5.3622132647       20.9314034080
  H        -0.1502514028        4.1177652301       19.1936062318
  H        -0.2099044323        4.7481540349       16.8702391674
  C         3.4403465623        5.4202795438       15.6241785545
  C         4.4992577376        4.8543167399       14.9738946695
  C         4.5651138286        4.9500942181       13.5221269215
  C         3.4338346467        5.2765300145       12.7568358835
  H         3.4518763074        5.2714678237       11.6882556343
  H         5.4582988883        4.6521727070       13.0393632939
  H         5.2947306651        4.3570721913       15.5297607463
  H         3.4615661302        5.3343083771       16.7210799089
  C         1.1779383410        6.2400858689       11.1843608270
  C         0.2482509264        5.2981071034       10.7762895987
  C         0.2231042649        4.7348184508        9.5243845042
  C         1.1421340524        5.2011144724        8.5453229157
  C         2.0830412404        6.2406813527        8.8952341389
  C         2.1009197560        6.7683799968       10.1968897796
  H         2.6650286340        7.6427682501       10.5839332654
  H         2.6968551298        6.5780001721        8.0870999349
  H         1.1521282624        4.7856222051        7.5289582464
  H        -0.5328209380        3.9747106418        9.3463282353
  H        -0.4739339058        4.9973517459       11.5171229132
