140

  C        14.8541410341       -0.0436005703        1.4129734949
  C        15.8273966591        0.7023105673        2.1017954517
  C        16.8546865988        1.3129681310        1.4243226971
  C        17.9104461805        1.9893226530        2.0711132778
  C        18.8878099865        2.6077040788        1.3400869330
  C        15.7642108928        0.9818208722        3.6719953144
  C        14.9828884484        2.0221168157        4.1453487747
  C        15.0080443825        2.4781757956        5.4952613151
  C        15.8361073112        1.8478768714        6.4239872063
  C        16.6334467787        0.8003455577        6.0017863159
  C        16.6173821190        0.3423410336        4.6438409995
  H        17.9250968291        2.0162351574        3.1256418869
  H        19.5662386856        3.1746169995        2.0036780863
  H        14.3535815339        2.5283407717        3.4178594601
  H        14.3007024768        3.2658557463        5.6974600162
  H        15.8120439912        2.2156076312        7.4624451181
  H        17.1793685721        0.2752516511        6.8271312473
  H        17.2801695329       -0.4621952354        4.3683197962
  C        14.7931312149       -0.0289443144       -0.0822704491
  C        13.7197826955       -0.5940299173       -0.8281480261
  C        12.5565112069       -0.9913384803       -0.1710614905
  C        12.5118753365       -1.0167066086        1.2895626616
  C        13.6940154450       -0.6855875852        2.0821132668
  C        16.8353461988        1.3286485554       -0.0469262130
  C        15.7940999781        0.7344017831       -0.7725336083
  C        15.6378959112        1.1284793470       -2.1801119342
  C        14.7414549502        2.1675586607       -2.4177932560
  C        14.6635485510        2.8006944605       -3.6774367037
  C        15.4796088521        2.2616020694       -4.7335008891
  C        16.4463395672        1.2893729994       -4.5083727974
  C        16.4949383320        0.6503081614       -3.2398632470
  H        17.2005107860       -0.1485882307       -3.0112029552
  H        17.0622493622        1.0662053253       -5.3501134662
  H        15.4741979176        2.7617713530       -5.7084159744
  H        14.0960957148        3.7355789316       -3.7173269037
  H        14.2314835361        2.6029884763       -1.5341679649
  C        17.7743300399        2.1500514798       -0.7445384659
  C        18.8533410656        2.7119837610       -0.0662255052
  H        19.6586929618        3.1491030139       -0.6341121149
  H        17.6709199515        2.2568753273       -1.7954325774
  C        13.5430369664       -1.0013832183        3.4794637988
  C        14.3366858125       -2.1689797679        3.8795518285
  C        14.5470052521       -2.5452208182        5.1697579151
  C        13.8705619541       -1.9267582122        6.1522385109
  C        13.0756770242       -0.7363367840        5.8426202573
  C        12.9178809548       -0.3463810361        4.5347154882
  H        12.4796257542        0.6224294305        4.3044670252
  H        12.5291937794       -0.2876111207        6.6825165744
  H        14.0190262744       -2.3118252474        7.2106111090
  H        15.1543340293       -3.4354214047        5.2581160934
  H        14.8678814968       -2.6186959963        3.0963240867
  C        11.4306945514       -1.6795284592        1.8933097552
  C        10.4238701868       -2.3116109618        1.1727357054
  C        10.4738205229       -2.3516775057       -0.2835300660
  C        11.4614895853       -1.5985418019       -0.8619873760
  H        11.4646915794       -1.5846927609       -1.9780225989
  H         9.8131384362       -2.9893286890       -0.8331375401
  H         9.7098862484       -2.8980087932        1.7221249117
  H        11.4291164542       -1.8096912541        2.9893603403
  C        13.9224926915       -0.9857294766       -2.3042432545
  C        14.8668782518       -2.0194244883       -2.5343189817
  C        15.0531631904       -2.5118917167       -3.8432189012
  C        14.1889673744       -2.1612487762       -4.8611775849
  C        13.1873000978       -1.2202477797       -4.6216160962
  C        13.1127025691       -0.6393439651       -3.3764607915
  H        12.5024639021        0.2294604722       -3.2440896174
  H        12.5574508705       -0.9518968097       -5.4565918760
  H        14.3382037876       -2.4845244577       -5.8670514783
  H        15.9541168342       -3.1635539872       -3.9225421475
  H        15.4029417084       -2.4602262979       -1.7399483373
  C        10.9400655159        7.2658928267        1.7691362416
  C         9.9088690372        8.0366379472        2.3516377045
  C         8.9367099414        8.6026101863        1.5397402909
  C         7.7418547440        9.3385435344        2.0421730044
  C         6.9247475439       10.0704566612        1.2316546311
  C         9.9553595558        8.5015791460        3.7711015391
  C        10.7429834116        9.6306523606        4.0965936769
  C        10.9229379998       10.0240490895        5.4032355493
  C        10.1138762604        9.5096324511        6.4711589090
  C         9.1378166697        8.5515373867        6.1681716992
  C         9.0591579894        8.0598510485        4.8144463818
  H         7.4985704808        9.4160151181        3.1125855863
  H         6.0626383191       10.5909158589        1.6675306622
  H        11.2700647621       10.1168877631        3.3116826286
  H        11.5515614477       10.8489447321        5.6154256486
  H        10.2954962995        9.9079947933        7.4465603717
  H         8.4092279982        8.1542155129        6.9761836062
  H         8.4626918739        7.2132487972        4.6603749204
  C        11.0983844739        7.2927935803        0.2791797863
  C        12.1543091084        6.4902831055       -0.3416616532
  C        13.1888364117        6.0061090652        0.4735163839
  C        13.1057935215        5.9943880712        1.8545762307
  C        11.9280680738        6.5273149857        2.5116233287
  C         9.1144999214        8.6204618320        0.0930496767
  C        10.1926741044        8.0405833707       -0.5166057207
  C        10.3877269579        8.4091465925       -1.9533070205
  C        11.4342844540        9.3368627247       -2.2772222139
  C        11.4817259571        9.8659426369       -3.5741792170
  C        10.5487103818        9.4932831991       -4.5247425865
  C         9.6468821819        8.4786415353       -4.2290351870
  C         9.5384950396        7.9214387230       -2.9636864792
  H         8.8246364671        7.1125490940       -2.8381384425
  H         9.0418256558        8.1226221326       -5.0471053095
  H        10.6564633723        9.8105419138       -5.5340124335
  H        12.2927871476       10.5510363854       -3.8948657750
  H        12.1028122922        9.5920564551       -1.4530564376
  C         8.2883646160        9.4619300324       -0.6875435786
  C         7.2198593672       10.1300991611       -0.1277297753
  H         6.5784381113       10.8959168677       -0.6835071828
  H         8.4420375782        9.6901841657       -1.7146459266
  C        11.7210278395        6.1094780272        3.9628704952
  C        10.8967685312        5.0002936438        4.2894651833
  C        10.8512977566        4.4615242085        5.5672225683
  C        11.5506637992        5.0497302700        6.5889216869
  C        12.3068075465        6.2442285852        6.2938571877
  C        12.4360493391        6.7183695601        4.9716509468
  H        13.1227402707        7.5433398150        4.9057678773
  H        12.7618425423        6.7434023533        7.1204333555
  H        11.4529148560        4.7446054102        7.6059548568
  H        10.4359456266        3.4685438954        5.6707871076
  H        10.2978564830        4.4605709405        3.5637936503
  C        14.0114881918        5.0898014248        2.6160691600
  C        15.0738073022        4.4402970938        1.9884984397
  C        15.3281065298        4.7189614550        0.6572035406
  C        14.4003452763        5.4727734740       -0.0914123158
  H        14.4415295860        5.5686716894       -1.1906872663
  H        16.1396096588        4.2642270569        0.0998717660
  H        15.6983208313        3.7535671867        2.5156451442
  H        13.8881225994        4.9872304534        3.6743411712
  C        12.1912477636        6.1996033606       -1.7682161090
  C        11.3309153866        5.2166073376       -2.2407939718
  C        11.2303091788        4.8209322992       -3.5840662953
  C        12.2485434085        5.3385192019       -4.4888442369
  C        13.0159150736        6.3776698838       -4.0666167935
  C        13.0229623755        6.7444336540       -2.7124261583
  H        13.6733966764        7.5816023104       -2.4896654365
  H        13.6382393193        6.9109905919       -4.7378193966
  H        12.2690503897        4.9991156063       -5.5244697754
  H        10.5645539314        4.0131400452       -3.9277131679
  H        10.5410917773        4.8552618945       -1.5718934358
