140

  C        15.0052044755       -0.3392795953        0.5066781762
  C        16.0833196418        0.3474693456        1.2351236495
  C        17.2101683319        0.9711644784        0.6156875213
  C        18.2670419619        1.5674756524        1.4360517822
  C        19.4589712046        1.8066335167        0.7571436801
  C        16.0834863424        0.6125734112        2.7153740078
  C        15.1605691921        1.4415511180        3.2531220233
  C        15.1040002441        1.8525993244        4.6178789428
  C        16.0445492742        1.2647903692        5.5102680680
  C        16.9126023714        0.3422912351        4.9736453313
  C        16.9891190723        0.0552253142        3.5768004110
  H        18.2116568876        1.6300727307        2.5150233157
  H        20.2870059294        2.3449119668        1.2687767581
  H        14.3581564391        1.9153105027        2.5724459651
  H        14.3041152361        2.5662897054        4.9064191860
  H        16.0616218074        1.4552844705        6.6139363468
  H        17.6338540422       -0.1652220673        5.6344557316
  H        17.7769210169       -0.5660340816        3.2237118527
  C        15.1322798484       -0.3940646134       -0.9954916456
  C        14.1697019454       -1.1502921192       -1.7040676543
  C        13.1533648846       -1.8578235711       -1.0568526227
  C        13.0100325803       -1.8089573940        0.4096404652
  C        13.9535391349       -1.1112237986        1.1595778969
  C        17.2416137687        1.0289375989       -0.8489407130
  C        16.1889195697        0.4177542237       -1.5878587893
  C        16.1804198856        0.6904613481       -3.1801943046
  C        15.3419719041        1.6458218342       -3.7642014403
  C        15.4900048233        1.9944642430       -5.0978258668
  C        16.4808559508        1.4389676977       -5.9133709359
  C        17.3216833711        0.5286686298       -5.2741995261
  C        17.2246510353        0.1212180546       -3.9304081588
  H        17.8685793860       -0.5885504126       -3.4857912934
  H        18.0940078288        0.0342401248       -5.8139679475
  H        16.6038050914        1.7005906835       -6.9666570510
  H        14.7059009700        2.6352840809       -5.4898677098
  H        14.5678455567        1.9940499074       -3.1173507858
  C        18.5060131201        1.5643815221       -1.4179582964
  C        19.6229401010        1.7671105452       -0.6589329694
  H        20.4394360618        2.1000558141       -1.1930358972
  H        18.5798028640        1.7627548049       -2.4795394291
  C        14.0877603909       -1.5180343920        2.6048659370
  C        15.1285852807       -2.4234445384        2.8809244617
  C        15.2919612017       -2.9829294297        4.1921303324
  C        14.4588802500       -2.5741750042        5.2312848006
  C        13.3476149312       -1.7145780995        4.8895938554
  C        13.1320178491       -1.2735203387        3.5631210327
  H        12.3023330969       -0.6524940597        3.2976841495
  H        12.6316858321       -1.4482892574        5.6982240378
  H        14.4163556399       -2.9853758372        6.1825652082
  H        16.1570244897       -3.6481476882        4.4099207622
  H        15.8231225618       -2.8430516404        2.0113519376
  C        11.8709113232       -2.3878727944        1.0061917214
  C        10.9587008038       -3.0494217210        0.2538182157
  C        10.9864169229       -3.0097476590       -1.1799753615
  C        12.0995745954       -2.5342040267       -1.7996514500
  H        12.2086325994       -2.4748788540       -2.8700154501
  H        10.1629585310       -3.4382236691       -1.7542654707
  H        10.0271123519       -3.5154000997        0.7335825600
  H        11.8342759098       -2.4899819009        2.1464910845
  C        14.2567336620       -1.3210361657       -3.2250202733
  C        15.1482823913       -2.2293042668       -3.8008401471
  C        15.0941969392       -2.5380855397       -5.1293638646
  C        14.1463983126       -1.9451759358       -5.9866405726
  C        13.2392781130       -1.0351188784       -5.4435948362
  C        13.3202311284       -0.7248774959       -4.0433877311
  H        12.7593160251        0.0789961339       -3.6741176487
  H        12.6217218903       -0.5022665981       -6.1511832663
  H        14.2265030770       -2.2912527834       -6.9808884660
  H        15.7945184815       -3.2715348316       -5.5632943558
  H        15.8776419821       -2.8773773095       -3.2165715084
  C        11.3935615514        6.1457246129        0.4501162858
  C        10.4667678814        6.9601275110        1.1260877053
  C         9.4027517104        7.5327621657        0.4378696385
  C         8.2850437723        8.1943012836        1.0584169013
  C         7.2399987021        8.7344081122        0.3630604779
  C        10.5590914329        7.3537270746        2.5650773443
  C        11.2519326362        8.5758311860        2.8911764522
  C        11.4017722585        9.0121658574        4.1746026905
  C        10.8358865386        8.3250810607        5.2969427764
  C        10.1064133267        7.1898479825        5.0187791978
  C         9.9958450148        6.7297585387        3.6777625700
  H         8.2015145060        7.9465042974        2.1188899880
  H         6.3559147066        9.0909558869        0.8603323921
  H        11.6733056150        9.1834702971        2.0222274745
  H        12.1477047732        9.8833685498        4.1613251323
  H        10.9519210567        8.6312544194        6.3293225352
  H         9.6986526928        6.6505280871        5.7815061115
  H         9.6241663214        5.6493195002        3.5807903631
  C        11.4379470590        6.2849408806       -1.0675835239
  C        12.4408350096        5.5548156616       -1.7642848424
  C        13.5436987396        4.9412364350       -1.0708796402
  C        13.5493770440        4.9690334583        0.3527047549
  C        12.4481643903        5.4032925997        1.1178366681
  C         9.4189040211        7.6437681703       -1.0306891078
  C        10.4093469907        7.0245623779       -1.7983564004
  C        10.7028953249        7.4844190499       -3.1620251346
  C        11.6637686293        8.5043714615       -3.2054435281
  C        11.8309852191        9.2249393510       -4.3648808064
  C        11.1051526735        8.8097624804       -5.5411573175
  C        10.1273530384        7.8648400908       -5.4747298969
  C         9.9879397169        7.1660355466       -4.2925675136
  H         9.2838891226        6.2903305932       -4.2204960228
  H         9.6004126099        7.5948800105       -6.4345229261
  H        11.3317108124        9.3537153458       -6.4576744809
  H        12.5403244184       10.0951019576       -4.3466262498
  H        12.1230303305        8.6978588054       -2.2585408188
  C         8.3911366879        8.3631376934       -1.7186402149
  C         7.3318811687        8.9295494930       -1.0224566406
  H         6.5644371977        9.4359230949       -1.5553043543
  H         8.4991226467        8.2988898358       -2.8119909735
  C        12.4429044999        5.1100581604        2.6184293273
  C        11.8338791907        3.9284802893        3.0039424234
  C        11.7584236378        3.5482245265        4.3322423065
  C        12.5671448337        4.2038701201        5.2713956907
  C        13.2834306407        5.3446068333        4.8316878618
  C        13.1971846164        5.8232020730        3.5436776190
  H        13.6276292814        6.7195341075        3.2096277669
  H        13.8353715628        5.9129884131        5.5438818342
  H        12.7330859083        4.0122265711        6.3361923168
  H        11.1279518771        2.7148791070        4.6495372609
  H        11.3730606399        3.3556615609        2.2270664438
  C        14.7750177827        4.5144897822        1.0634518419
  C        15.8622268478        4.0589279967        0.3529813312
  C        15.7403381630        3.9819158248       -1.0587161445
  C        14.6399376773        4.3378779487       -1.7835107845
  H        14.5139183802        4.2709216257       -2.8727949865
  H        16.5677170187        3.7076711781       -1.6677952339
  H        16.7447555697        3.9096167439        0.9410644558
  H        14.7469723091        4.7276059423        2.0689183762
  C        12.3582822978        5.2364671366       -3.1905660790
  C        11.4108073381        4.2214429623       -3.6131421370
  C        11.3083363469        3.9257261187       -4.9798763373
  C        12.2055750193        4.5083274183       -5.8658990701
  C        13.2010459539        5.3986926801       -5.4055192800
  C        13.2659380107        5.7774115526       -4.0917880556
  H        13.9146777929        6.4772854268       -3.7689680004
  H        13.9208998159        5.9612920502       -6.1138038461
  H        12.1161511814        4.1726399706       -6.8596173551
  H        10.5032415063        3.2008011701       -5.2729353947
  H        10.9087205741        3.5042274403       -2.9427350465
