140

  C         4.1487088486       -0.7350134736       14.0758864161
  C         5.1974174143       -0.1545019493       14.8258445204
  C         6.3996837835        0.3815600884       14.2644752188
  C         7.4136780394        1.0209912856       14.9967752448
  C         8.5167687849        1.5627696646       14.3792795220
  C         5.0140528459        0.1389688834       16.2676287967
  C         4.5697342032        1.3896180417       16.6146139559
  C         4.7756333053        1.9370000555       17.9354703234
  C         5.5213704465        1.1599834046       18.8555862825
  C         6.0094434833       -0.1009773372       18.4842714336
  C         5.7032699079       -0.6257806703       17.1721834371
  H         7.2221281814        1.1766715767       16.0869907349
  H         9.2481659088        2.1786949303       14.8373629537
  H         4.0559262737        2.0583245322       15.8454494179
  H         4.3928971950        2.9489330836       18.1043221367
  H         5.8199426354        1.6155864151       19.8063375076
  H         6.7175664305       -0.6423211201       19.0993165696
  H         6.1092691408       -1.6165864314       16.9603283218
  C         4.1681174440       -0.6833161571       12.5934491946
  C         3.1204646645       -1.3497021104       11.9003476575
  C         1.9974743543       -1.9978870276       12.5495844621
  C         1.9781190445       -2.0191171421       13.9699996782
  C         3.0473996905       -1.4569720921       14.7376047044
  C         6.4706930830        0.3870120891       12.7826424383
  C         5.3818022872       -0.0611192689       12.0020220135
  C         5.3817816098        0.3417325761       10.5484886446
  C         4.6211800323        1.4813966676       10.2315693328
  C         4.6742187788        2.0380921391        8.9194438964
  C         5.5344175861        1.3785144037        7.9363336761
  C         6.1676392910        0.2646343084        8.3490456658
  C         6.2226904384       -0.2693648122        9.6122262496
  H         6.8793713493       -1.1151869348        9.7825191454
  H         6.8789443196       -0.1108192938        7.6383330627
  H         5.8557896840        1.7411695569        6.9330545523
  H         4.0871687624        2.9274776857        8.6636693456
  H         4.0870234885        1.9662136013       11.0617456588
  C         7.7001742532        0.8211174292       12.1793587170
  C         8.6651547806        1.3837248824       12.9521473521
  H         9.5602667630        1.6789641901       12.4907009097
  H         7.8141236951        0.6388463268       11.1092443888
  C         3.0315620039       -1.8059004913       16.1981616293
  C         3.7725916285       -2.9347135895       16.6430429800
  C         3.8478311425       -3.3250285601       17.9930401987
  C         3.0571254275       -2.7266695776       19.0057784056
  C         2.2691919703       -1.6974878381       18.5029438441
  C         2.3263159178       -1.1765857084       17.2300745612
  H         1.6280681483       -0.3902238542       17.0400235518
  H         1.5455992568       -1.1647894874       19.1547356376
  H         3.0548798101       -3.0694178814       20.0321335129
  H         4.5715396599       -4.1160757657       18.3124492314
  H         4.3105439936       -3.5005471893       15.8735300146
  C         0.9253638931       -2.5937932089       14.7216869432
  C        -0.1234695643       -3.2660562947       14.0791499327
  C        -0.1358133004       -3.3103917303       12.5983857678
  C         0.9355218592       -2.6771153518       11.9107379165
  H         0.8973596038       -2.6865872013       10.8603717349
  H        -0.9137436897       -3.8499079948       12.0175079072
  H        -0.8699382312       -3.7983510692       14.6687987340
  H         0.9869757314       -2.4809738295       15.7996027116
  C         3.1895400510       -1.5560891370       10.4134659414
  C         3.9526051965       -2.6364450387        9.9746247586
  C         3.8280077349       -3.1503249301        8.6478262703
  C         3.0161627214       -2.4456647180        7.7514970388
  C         2.3770743482       -1.2300131790        8.2128335301
  C         2.4216092542       -0.8631954175        9.5465934316
  H         1.7995338966       -0.0218755222        9.8568678935
  H         1.6771412547       -0.6786837836        7.5967654498
  H         2.8812093880       -2.7928068253        6.7346102561
  H         4.2681161294       -4.0731303912        8.3804645319
  H         4.6698459543       -3.1128187015       10.6990056888
  C         0.5188027035        6.3276685325       13.7134487034
  C        -0.5804195929        6.9601663272       14.3807724634
  C        -1.6745065319        7.4843007610       13.6130158009
  C        -2.7061553691        8.2814867292       14.2607688848
  C        -3.6982457826        8.8980875613       13.5728765498
  C        -0.5098687243        7.3725324940       15.8179030113
  C         0.2293978303        8.4911499434       16.1064795878
  C         0.3568973396        9.0164153431       17.3837276530
  C        -0.3891942172        8.4152967244       18.4389283513
  C        -1.1839334810        7.2885172095       18.2032185121
  C        -1.2649791769        6.7720285861       16.8786090152
  H        -2.8223182004        8.2853586702       15.3329723471
  H        -4.4468689480        9.4905298758       14.1424972935
  H         0.8474840485        8.8528563448       15.2836212507
  H         0.9870230224        9.9218402688       17.4961126546
  H        -0.3528553196        8.7810059322       19.4185949187
  H        -1.7951031230        6.8124087649       18.9509345537
  H        -1.8366987683        5.8035459614       16.6924716613
  C         0.5079124654        6.3115779832       12.1835347487
  C         1.5863170909        5.6066724956       11.5589215223
  C         2.6581372386        5.1376216379       12.3134715540
  C         2.6450812849        5.1264920189       13.7619848713
  C         1.5643839025        5.6992195185       14.4646751424
  C        -1.7025079367        7.4339997585       12.2242191227
  C        -0.5787595963        6.9114895232       11.5106729648
  C        -0.4129486724        7.3150084866       10.0840073565
  C         0.1768230096        8.6183991961        9.9313803083
  C         0.2105999149        9.2228313630        8.6964193660
  C        -0.2744623494        8.5205343698        7.5612432866
  C        -0.9117319054        7.2795417837        7.7395202953
  C        -0.9987547380        6.6973247456        8.9926953171
  H        -1.4577975277        5.7489732667        9.2135187356
  H        -1.5068620187        6.7797325589        6.9621098383
  H        -0.1626107365        8.9649068710        6.5368797082
  H         0.6397241005       10.2482312141        8.6520404511
  H         0.7005991658        9.0156291598       10.7725873042
  C        -2.7847161771        8.0653651125       11.5016423429
  C        -3.7020497680        8.8159370937       12.1860335379
  H        -4.5715020910        9.2014320645       11.6349281420
  H        -2.9477955894        8.0359097549       10.4501548813
  C         1.4154484150        5.3068962605       15.8869800509
  C         0.7592432305        4.1327228439       16.2783108278
  C         0.8256500743        3.6943444958       17.5765232589
  C         1.6235378564        4.3622190889       18.5176329992
  C         2.3842213195        5.4597448575       18.1463137157
  C         2.2631034909        5.9106855303       16.8020045379
  H         2.8381592573        6.7982869664       16.4364464688
  H         3.0192108096        5.9970818239       18.8145767432
  H         1.7519166078        3.9649200687       19.5281658739
  H         0.2021029492        2.7908957095       17.7953739310
  H         0.2925393451        3.5168839302       15.5388579215
  C         3.6405451381        4.3063204736       14.4591208039
  C         4.7765358726        3.8782369130       13.7561987726
  C         4.8329418314        4.0703256908       12.3721900629
  C         3.8057501404        4.5740314986       11.6640959683
  H         3.8867621903        4.5304786091       10.5717339427
  H         5.6991664179        3.5794407177       11.9009810653
  H         5.4614106271        3.2696703106       14.3230313887
  H         3.5193752787        4.2444280134       15.5810678530
  C         1.5949185711        5.2613510114       10.1285577407
  C         0.9660277058        4.0824104990        9.6552208135
  C         0.9869854425        3.7111131804        8.3106077770
  C         1.7946750295        4.4579947276        7.4296113471
  C         2.3729277226        5.6952987029        7.8110244396
  C         2.3082954796        6.0510790182        9.1875552949
  H         2.7369858122        6.9758707194        9.5299667244
  H         2.9984269596        6.2442528779        7.1754917501
  H         1.9008374344        4.1636964653        6.3544290131
  H         0.3673120999        2.7927948874        7.9966588222
  H         0.3965595204        3.6005755871       10.4241638500
