140

  C         4.4493548138       -0.1728257237       15.7318108357
  C         5.4911792668        0.5171415750       16.4299213875
  C         6.4953600526        1.2486691041       15.6801304430
  C         7.5380655135        1.9458196184       16.3885965985
  C         8.5341233135        2.6452955489       15.6978452358
  C         5.3753053903        0.9033085420       17.8959367340
  C         4.3721980936        1.7341617446       18.3109042654
  C         4.1968440504        2.1790215064       19.6799390183
  C         5.1286878011        1.8182896810       20.6586543725
  C         6.1793553174        0.9955758385       20.2380429540
  C         6.2882818398        0.5460642872       18.9191815319
  H         7.4892484029        1.9259686226       17.4742710167
  H         9.2795496574        3.2095055878       16.2357908920
  H         3.6227997222        2.0566133154       17.6607970158
  H         3.4211381072        2.8679510877       19.9473608592
  H         5.0370851222        2.2556421259       21.6666756846
  H         6.9580524705        0.5977059448       20.8693180905
  H         7.1180294540       -0.1823246421       18.6736487963
  C         4.4398410622       -0.0776700675       14.2128971692
  C         3.3798407628       -0.7527656957       13.5505341704
  C         2.2846378300       -1.3779402739       14.2634475954
  C         2.3324762721       -1.4519853478       15.7548941215
  C         3.4163309157       -0.8242563123       16.4296725404
  C         6.5243560049        1.2864062142       14.2444349882
  C         5.4652295527        0.7074820594       13.5620011858
  C         5.3594490461        0.9460634384       12.0579752294
  C         4.8093684675        2.0312214761       11.4098689589
  C         5.0685466788        2.2927140738       10.0678750939
  C         5.8599240804        1.3944955683        9.2848962306
  C         6.3576728890        0.2583271280        9.9702113524
  C         6.1006392001        0.0753067794       11.3349451142
  H         6.5133609839       -0.7922219258       11.8748111727
  H         6.8809359266       -0.4863199471        9.4343697958
  H         6.1805855401        1.5612487784        8.2486508922
  H         4.6909117769        3.2523902685        9.6731402073
  H         4.1775093029        2.7406366590       11.8852883459
  C         7.5703866666        1.9313558966       13.5921759265
  C         8.5792432376        2.5875081640       14.2674959826
  H         9.3167801039        3.1520839409       13.6991751142
  H         7.5189031945        1.8391300490       12.4999638644
  C         3.4673494640       -1.0917956161       17.9164987618
  C         4.4302786810       -2.0462878193       18.4122519925
  C         4.3554490729       -2.4805080435       19.7564195054
  C         3.2674669225       -2.0333806285       20.6335601239
  C         2.3404877931       -1.1555173098       20.0799767965
  C         2.5501270644       -0.5853658407       18.7713651588
  H         1.7711558248        0.0509443218       18.3742603206
  H         1.3921297658       -0.8186997446       20.5520276509
  H         3.1119076553       -2.5337504029       21.5812775580
  H         5.0752291189       -3.2297998274       20.0611898771
  H         5.0086783061       -2.5639655238       17.7032725960
  C         1.2109107115       -2.0526709286       16.4338263605
  C         0.1665715403       -2.5510448923       15.7614866616
  C         0.1440317140       -2.5691809015       14.3083315724
  C         1.1163078065       -1.9261385550       13.5559027598
  H         1.1101946707       -2.0412578170       12.4172006467
  H        -0.7203615925       -2.9313823638       13.7547606242
  H        -0.7738013833       -2.8228833290       16.2267750275
  H         1.1899159332       -2.1136555969       17.5499768419
  C         3.3605704000       -1.0607949258       12.0338159030
  C         3.9922445835       -2.2666794189       11.6951394294
  C         3.8068713012       -2.7929395413       10.4255232375
  C         3.0867022515       -2.1305373836        9.4940555385
  C         2.4879063680       -0.8957048858        9.7660983398
  C         2.6867349674       -0.3462664561       11.0563324581
  H         2.1168149198        0.5357428266       11.3422452357
  H         1.8351145744       -0.4395599245        9.0684539596
  H         2.9571030710       -2.6842724970        8.5123178692
  H         4.1563236907       -3.7583009092       10.1042145687
  H         4.5334900010       -2.8360324510       12.3932353291
  C         0.7011430380        7.2448165951       15.5747395501
  C        -0.2632146212        8.0977589695       16.2404682941
  C        -1.2955363937        8.6959019679       15.5537632314
  C        -2.3881751279        9.3069242995       16.2428077437
  C        -3.4752721106        9.8520423909       15.5571909412
  C        -0.1357809348        8.5017846413       17.7270087482
  C         0.9585269445        9.3388633280       18.0873632487
  C         0.9752269479        9.9205590686       19.3875894565
  C         0.0391383266        9.5496835084       20.3736293583
  C        -0.9171162482        8.5768227204       20.1051859610
  C        -0.9700909542        8.0245249558       18.7908044405
  H        -2.3827321857        9.2419527161       17.3476022777
  H        -4.3184564117       10.2169438839       16.1343862596
  H         1.6822202657        9.7551864069       17.3577240372
  H         1.8873719542       10.4669994688       19.6816663262
  H         0.2159502706       10.0294010944       21.3534029967
  H        -1.4285820360        8.1347578149       20.9549099101
  H        -1.7302816302        7.2787572349       18.5026669788
  C         0.6897630913        7.1380825337       14.0650770619
  C         1.7893882033        6.4794744556       13.4068844946
  C         2.7611921067        5.8025022355       14.1776633637
  C         2.6825574307        5.8190156229       15.6398967169
  C         1.6817474312        6.5455124302       16.3473498808
  C        -1.3708567923        8.5788667386       14.1207140922
  C        -0.3286612785        7.8664266042       13.3715174949
  C        -0.3382142594        8.0672604719       11.8762621343
  C         0.3527136996        9.1804839259       11.3607588738
  C         0.4384891179        9.4782137198        9.9575388732
  C        -0.3613832336        8.6383183033        9.0977745782
  C        -1.0195003866        7.5749040770        9.6259858621
  C        -1.0101913788        7.2239467574       10.9724869099
  H        -1.2930831938        6.2598016432       11.3372208456
  H        -1.5897936464        7.0073204851        8.8722758485
  H        -0.2676666452        8.8484642045        7.9995596192
  H         0.9942087950       10.3941280567        9.6920596909
  H         0.7352180589        9.8257997647       12.1288697743
  C        -2.5288270678        9.1089463793       13.4437032951
  C        -3.5181638844        9.7111558508       14.1550073042
  H        -4.5061398673        9.9984865128       13.7308379590
  H        -2.5855815614        8.9005370740       12.3843762991
  C         1.4910717187        6.1566570432       17.7510745074
  C         0.6086031186        5.1586034148       18.0740299010
  C         0.5607625410        4.6111909099       19.3774299482
  C         1.4412985391        5.0940540839       20.3529007342
  C         2.2056179753        6.2456818002       20.1058117769
  C         2.2825231563        6.7160641900       18.7718108759
  H         2.9657186799        7.5186605516       18.5454650722
  H         2.7786258694        6.7523259215       20.8603375532
  H         1.5604757340        4.6463767167       21.3718219015
  H        -0.0759518944        3.7533304576       19.4832021411
  H        -0.0205002685        4.5910389659       17.3582886086
  C         3.5386610805        4.9187558720       16.3848454293
  C         4.5668440027        4.2601857090       15.8121009897
  C         4.7263700149        4.3875883307       14.4176630707
  C         3.8296232381        5.0691290451       13.6466803398
  H         3.9876970679        5.0534860208       12.5462567419
  H         5.5510728158        3.8759245682       13.9732541192
  H         5.1975768404        3.6288288478       16.4415368691
  H         3.3943417150        4.8264729533       17.4146812659
  C         1.9032386614        6.3810301949       11.8871244334
  C         1.6222848954        5.1339555273       11.2396559585
  C         1.8756991657        4.8764103943        9.8714901587
  C         2.5409134558        5.8219248229        9.0813941213
  C         2.9217597090        6.9767087525        9.6986036450
  C         2.5784286981        7.3003392726       11.0396248810
  H         2.8525408902        8.2767252783       11.4219806337
  H         3.3827599819        7.7558119014        9.0759636780
  H         2.7783855874        5.6120731150        8.0645132402
  H         1.4677645268        3.9755382563        9.4229241688
  H         1.2026697280        4.2501546835       11.7433022266
