140

  C         5.2754578559       -0.0770075008       16.4349211071
  C         6.2629409872        0.7239376907       17.0493540833
  C         7.3018688132        1.3015957032       16.2980366480
  C         8.3803834506        2.0821951218       16.9646490794
  C         9.3308534788        2.7203890811       16.1767845336
  C         6.1918942537        1.1545545550       18.4694787838
  C         5.3646306532        2.2727882906       18.7964861708
  C         5.2277582109        2.7421078848       20.1374859708
  C         6.0378969356        2.2228558193       21.1366376421
  C         6.9250380612        1.2009788356       20.7764088496
  C         6.9403951449        0.6081982684       19.5315116413
  H         8.4736697289        2.1241444349       18.0095714097
  H        10.0730201962        3.3936949635       16.5596358730
  H         4.6635965549        2.6834676776       18.0216460507
  H         4.4813415765        3.5395905853       20.2720165384
  H         6.1945843903        2.6324854593       22.1498659963
  H         7.6164821020        1.0442805656       21.6060607211
  H         7.5296143341       -0.2674829320       19.4127546261
  C         5.2597952970       -0.1084689514       14.9182327335
  C         4.3487869483       -0.9217320770       14.2709564323
  C         3.2225437321       -1.4192660722       14.9622767340
  C         3.0927144101       -1.3371715905       16.3740136918
  C         4.2515366049       -0.7659209622       17.1251018339
  C         7.3317468350        1.2542722143       14.8551121453
  C         6.2170453062        0.6415869898       14.1571068128
  C         6.1638319798        0.8145368459       12.6821999853
  C         5.3863351963        1.8077744197       12.0915851634
  C         5.6511010118        2.0663674229       10.7214375610
  C         6.6037944978        1.3981003639        9.8883601911
  C         7.2154968405        0.3186967106       10.5246385814
  C         7.0698036989        0.0675015086       11.8734679633
  H         7.7247546737       -0.7062845669       12.3742005652
  H         7.8987839252       -0.2945062234        9.9400105759
  H         6.7073774040        1.7062051380        8.8574591633
  H         5.1113213955        2.9206268314       10.2610364451
  H         4.6425995051        2.4013245755       12.5728918647
  C         8.3577763276        1.9002285552       14.1214876180
  C         9.2850692485        2.6688880960       14.7487748922
  H         9.9197135587        3.3132666149       14.1656203498
  H         8.2903800440        1.8641691845       13.0528572992
  C         4.3309147507       -1.1795237751       18.6324237652
  C         5.0681729560       -2.3594626998       19.0369143237
  C         5.1907453561       -2.6444440913       20.3857469823
  C         4.5187262567       -1.8333815893       21.3428539352
  C         3.7628074315       -0.7366612734       20.9384021628
  C         3.7383301570       -0.4038649251       19.5738991223
  H         3.2008720737        0.5242255542       19.2595520333
  H         3.2255670021       -0.0998295900       21.6804489864
  H         4.6450280250       -2.1113335649       22.3882500483
  H         5.8212122282       -3.4786142087       20.7137082887
  H         5.5107329465       -2.9516729050       18.2271112410
  C         1.9818434171       -1.9108514571       17.0807643445
  C         0.8825419856       -2.3806998621       16.3972631280
  C         0.9532524604       -2.3834524578       14.9725830419
  C         2.0349425003       -1.9282883117       14.2714943713
  H         1.9961044492       -2.1233657153       13.2267906192
  H         0.0471045508       -2.7004795560       14.5274139351
  H         0.0216281465       -2.7665975766       16.9382996037
  H         2.0001579064       -1.9812295810       18.1592979263
  C         4.2498691434       -1.1817708847       12.7849903834
  C         4.8492820342       -2.4007791643       12.2999638014
  C         4.5833717423       -2.7735622731       11.0069194071
  C         3.7292940608       -2.1456794927       10.1686489472
  C         3.1237869705       -0.9247973852       10.6277628512
  C         3.3584133000       -0.4840111479       11.9276979147
  H         2.8849741403        0.3982725470       12.3300117358
  H         2.2974882002       -0.4783088782       10.0401205272
  H         3.6023571511       -2.5413764247        9.1796750107
  H         5.0692429109       -3.7491438443       10.7617071415
  H         5.5510430391       -2.9417152928       12.8960748756
  C         1.8727998272        7.0913853170       16.1262207551
  C         0.7810972700        7.7316037489       16.7721183005
  C        -0.3507425513        8.2228592633       16.1404834111
  C        -1.3172659967        8.9395922911       16.8265855453
  C        -2.4302170583        9.5082126810       16.2302263334
  C         0.8798405327        8.0345919665       18.2235902923
  C         1.7879165949        9.0670440153       18.6809324604
  C         1.8137836787        9.4514768875       20.0165644169
  C         1.0936785210        8.7277031420       20.9388015631
  C         0.2978843880        7.6476838791       20.5179351665
  C         0.1158411021        7.3308232123       19.1695733451
  H        -1.1530159123        9.1883970518       17.8522351643
  H        -3.1955754876       10.0201416861       16.8366922719
  H         2.3751679210        9.6304454200       17.9582293902
  H         2.3764494070       10.3430009338       20.2626011776
  H         1.0380036689        9.0550266062       22.0201072253
  H        -0.3466150322        7.2525917222       21.3606312691
  H        -0.5423919151        6.5253987859       18.9053175474
  C         1.8133051665        7.0836412176       14.6406465789
  C         2.8407188429        6.2866657786       13.9200646976
  C         4.0189175689        5.8302599804       14.5930043381
  C         3.9204159654        5.6937887400       16.0801052986
  C         2.9211170806        6.2743044547       16.8115491322
  C        -0.4172281944        8.1945071046       14.7114193468
  C         0.7212237500        7.7227104289       13.9683875811
  C         0.7190845825        8.0990386574       12.5287794973
  C         1.3897036333        9.2999686115       12.2641750845
  C         1.2801318322        9.8413188831       10.9807797557
  C         0.5614246505        9.1543756605        9.9760304925
  C        -0.2006445464        8.0561989244       10.2627003148
  C        -0.0896698660        7.4610258057       11.5147274962
  H        -0.7037041716        6.5960140570       11.8612263797
  H        -0.6458442736        7.5494492246        9.4355364875
  H         0.4520614071        9.5872265446        8.9807769867
  H         1.7445910601       10.7970262778       10.6992142540
  H         1.9214053073        9.7811531458       13.0814728015
  C        -1.5300973647        8.8754736826       14.0534548662
  C        -2.5475498430        9.4939022498       14.8119055057
  H        -3.3369180359        9.9063002447       14.1638753978
  H        -1.6290574216        8.8388444147       12.9924191570
  C         2.8122593921        5.9204376654       18.2405185357
  C         1.9233790494        4.9056801619       18.5932580831
  C         1.7649816460        4.4854609223       19.9652664784
  C         2.6012252979        5.0473567492       20.9499191540
  C         3.4508912239        6.1422830533       20.5945045554
  C         3.5739036045        6.5956116193       19.2386260556
  H         4.2761339631        7.4580499835       18.9946689699
  H         4.2235727964        6.3948634867       21.3434965274
  H         2.6122160220        4.9117570374       22.0222828896
  H         1.0534033420        3.6794992556       20.2810207656
  H         1.3083971799        4.4325420512       17.8380754939
  C         4.9646647000        4.9780062047       16.7832261637
  C         6.0755023941        4.5073970242       16.0647900928
  C         6.1929727940        4.7632403002       14.6687513162
  C         5.2031903501        5.3472963976       13.9531110340
  H         5.2879449445        5.4549231514       12.8751281090
  H         7.0598091702        4.3635267023       14.1981082323
  H         6.8628744672        4.0342880362       16.6090105152
  H         4.8165109265        4.7904427509       17.8908725239
  C         2.6866898436        5.8884880858       12.4693034227
  C         1.8111573905        4.7700960928       12.1696443465
  C         1.8027980201        4.2150570777       10.8470246234
  C         2.6829412548        4.7526233848        9.8483940398
  C         3.3715173414        5.8763756053       10.1731114594
  C         3.4247162088        6.4452087955       11.4373387799
  H         4.1199836340        7.2915827633       11.5818803101
  H         3.9068110893        6.2980308683        9.3320229731
  H         2.7771460426        4.3347067674        8.8299860691
  H         1.1827220389        3.3440482014       10.5817675046
  H         1.2516354112        4.3405181892       12.9621144963
