140

  C         3.7492816329        0.0383694098       14.3300155762
  C         4.7679782516        0.8171809347       15.0495705278
  C         5.8954689104        1.3394282727       14.2968957381
  C         6.9937232743        2.0192301407       14.9827574158
  C         8.0425357666        2.5124014152       14.2918776139
  C         4.5804077883        1.2969439084       16.4491684560
  C         3.7778368286        2.4294756035       16.5917999462
  C         3.5961421426        3.0591642907       17.8178509201
  C         4.3213142214        2.5861064389       18.9352307703
  C         5.1560008658        1.4907513931       18.8171251672
  C         5.2743586163        0.8101819627       17.5846130930
  H         7.0729083691        2.0424046669       16.0641856192
  H         8.9213445307        2.7718534838       14.8510241325
  H         3.2060834754        2.7057348856       15.6979641275
  H         3.0152988930        3.9863541363       17.9968510094
  H         4.1192462451        2.8546789717       19.9819500659
  H         5.7572269851        1.1899603843       19.6694530830
  H         5.9429402662       -0.0464942148       17.4831469685
  C         3.8089553048       -0.0748404018       12.7653412075
  C         2.7690667101       -0.8294718069       12.1011016038
  C         1.7180051586       -1.4183777073       12.7996568169
  C         1.7430841536       -1.3552671564       14.2461631253
  C         2.8393231424       -0.7425575478       14.9954623346
  C         5.9442624815        1.2191042378       12.8866823620
  C         4.8665131297        0.6549432100       12.2130356061
  C         4.8935361164        0.8886742163       10.7533552935
  C         4.4398460786        2.1497293644       10.2477688603
  C         4.5282548964        2.3842938484        8.8668045843
  C         5.1238839172        1.3945274592        7.9639633328
  C         5.5546385822        0.1849895835        8.5084274596
  C         5.4448334690       -0.0642137205        9.9089621664
  H         5.8927993104       -0.9832200472       10.2368737729
  H         6.1073584584       -0.5233804723        7.8717419558
  H         5.1559763487        1.6887441317        6.9150575603
  H         4.1771903989        3.3810017904        8.5093655056
  H         3.9216786596        2.8750758395       10.9391347660
  C         7.1353454731        1.8533366181       12.1865633623
  C         8.1264098742        2.4895725190       12.8855533761
  H         9.0356465081        2.7737795644       12.3695088342
  H         7.2638893270        1.7263363883       11.1217469222
  C         2.7958697567       -0.9434593824       16.4821049057
  C         3.6420532867       -1.8574029070       17.1043038992
  C         3.5016170388       -2.1268493132       18.4521579694
  C         2.6431892360       -1.4231907870       19.2848012773
  C         1.7915820988       -0.5399448775       18.6148514135
  C         1.8335864681       -0.2659897380       17.2412467277
  H         1.1178793609        0.3623603056       16.7310612585
  H         1.0754593621        0.0991104046       19.2136734640
  H         2.6241543690       -1.6320431468       20.3324633706
  H         4.1352383930       -2.9255058964       18.7726409834
  H         4.3103704505       -2.4932259000       16.5028608721
  C         0.6454456792       -1.9846698022       14.9305429487
  C        -0.4046263069       -2.6202786664       14.2722576675
  C        -0.3216049515       -2.8245051164       12.8489046186
  C         0.6195324269       -2.0672056790       12.1451292512
  H         0.5679074323       -2.2079657547       11.0716530928
  H        -1.0078177973       -3.5659785811       12.3101772427
  H        -1.1148693068       -3.1578618237       14.9048080429
  H         0.6223818266       -2.0053917769       15.9645734567
  C         2.8033492900       -1.1396509407       10.6574363535
  C         3.2592044327       -2.3997049169       10.2055886935
  C         3.0837501932       -2.8160115479        8.9108592908
  C         2.4692884176       -1.9390068783        7.9682145769
  C         2.1274542144       -0.6174635960        8.4306917121
  C         2.2424620234       -0.2656304261        9.7579674951
  H         1.8866418090        0.7165848237        9.9941223411
  H         1.6020390456        0.1059921953        7.6923855867
  H         2.2791394856       -2.2770010270        6.9540700626
  H         3.3301454308       -3.8223370308        8.6553769734
  H         3.5144208180       -3.1659935886       10.8912723641
  C         0.1309479618        7.4393178159       13.7564098170
  C        -0.9274196885        8.1843988507       14.4288587454
  C        -2.0817654171        8.6351572089       13.7410372539
  C        -3.2125044721        9.2405359345       14.4027920204
  C        -4.2657229607        9.6832173251       13.6712934665
  C        -0.8169478390        8.5263756784       15.9043639877
  C         0.0795667666        9.4972986080       16.3341875260
  C         0.1661955846        9.8108126246       17.6984500128
  C        -0.6219728865        9.1244366557       18.6210491696
  C        -1.5522904861        8.1364528162       18.1622362261
  C        -1.6393543802        7.8451291722       16.8135506493
  H        -3.3261945679        9.3238860889       15.4828898312
  H        -5.1572466875       10.0146757400       14.1629104829
  H         0.5727647005       10.0844094337       15.6018806319
  H         0.8487158392       10.5920160395       18.0084205976
  H        -0.5516520632        9.3045673350       19.6873053883
  H        -2.1662221756        7.5504811054       18.8476674523
  H        -2.3376827651        7.0963234422       16.5111104800
  C         0.1157354642        7.3053108735       12.2389053195
  C         1.2438986773        6.7389315103       11.5960860809
  C         2.3330214928        6.2525830718       12.3317298259
  C         2.4082900227        6.3100851956       13.7235578186
  C         1.2461001758        6.8570404419       14.4363491549
  C        -2.1146161269        8.4003518818       12.2648449036
  C        -0.9507768967        7.9005150689       11.5863571723
  C        -0.8978465164        8.2010306913       10.1040481305
  C        -0.3276523170        9.4267309076        9.7880675236
  C        -0.3670208123        9.9947775391        8.4849213602
  C        -1.0696650537        9.2725280193        7.4629097553
  C        -1.7083831285        8.0319296637        7.8138760355
  C        -1.5349073369        7.4477556737        9.0570872089
  H        -2.0128451948        6.5171161882        9.3347734154
  H        -2.3325354817        7.5917387494        7.0463606719
  H        -1.1823121773        9.5978526666        6.4830631581
  H         0.0727033074       11.0077450608        8.3508152200
  H         0.1796990728       10.0359596280       10.5434777337
  C        -3.3237494857        8.8801003328       11.5227289453
  C        -4.3425655701        9.5506400850       12.2209324926
  H        -5.2279473969        9.9998271423       11.7668227359
  H        -3.4241278362        8.8223787379       10.4235532071
  C         1.0863802286        6.3350514965       15.9179991566
  C         0.2717902728        5.1824302814       15.9336747965
  C        -0.0521085061        4.5945027763       17.1476080426
  C         0.4883886972        5.0593722378       18.3259706710
  C         1.4006442342        6.1057977995       18.2604382263
  C         1.6771508955        6.7552161313       17.0752826051
  H         2.3009885433        7.6613737391       17.0551583224
  H         1.9541555920        6.3739751815       19.1545425683
  H         0.2227348579        4.5743575585       19.2914241633
  H        -0.7112061963        3.7050324756       17.1427427712
  H        -0.0164522481        4.7608534123       14.9849839485
  C         3.4543996931        5.6219900315       14.4281035980
  C         4.3899474839        4.8113510103       13.8131154448
  C         4.3541468721        4.8354317286       12.4466517158
  C         3.3701626512        5.4574897852       11.7333853191
  H         3.3995423414        5.3694382816       10.6529755640
  H         5.1764417392        4.4583945530       11.8354504730
  H         5.1149122475        4.3027601854       14.4056978403
  H         3.5588700132        5.6478362858       15.4797300642
  C         1.1931272850        6.2290209317       10.1879560309
  C         0.5228554437        5.0137927964        9.9106709283
  C         0.5546060559        4.4119844671        8.6484612878
  C         1.2476367973        5.0282558567        7.5977219658
  C         1.9138151691        6.2167116992        7.8378254322
  C         1.8844992751        6.8462249254        9.0848943860
  H         2.3779984997        7.7843806601        9.1701902755
  H         2.5996904218        6.6089789726        7.0707490244
  H         1.3860571981        4.5426127714        6.5967791606
  H         0.0034327836        3.5108368014        8.4627355307
  H        -0.0538005846        4.4927817468       10.6902395543
