140

  C         3.6270706172        0.2689542813       14.5734836664
  C         4.7418911839        0.9422950996       15.2566455070
  C         5.8206088965        1.5185210211       14.5384660939
  C         6.9635274926        2.1183325934       15.2223957173
  C         8.0114495311        2.6363611882       14.4885098966
  C         4.8094749487        1.1101494622       16.7540750467
  C         4.4721458782        2.3423676292       17.3131702075
  C         4.6840489296        2.5853661445       18.6296598464
  C         5.2058318379        1.5612467496       19.4842274813
  C         5.5212460707        0.2660636690       18.9344923683
  C         5.4018363678        0.0830379355       17.5357623295
  H         6.9961989458        2.0809052345       16.3119451940
  H         8.9224046375        2.8925188960       15.0065938211
  H         4.0977882637        3.1646930888       16.7131148652
  H         4.4101542263        3.5136548059       19.1612399182
  H         5.4341116262        1.6838876036       20.5462485084
  H         5.9774322881       -0.4977381714       19.6309217555
  H         5.6115322311       -0.9055015024       17.1483417477
  C         3.5401702811        0.3273293981       13.0885272215
  C         2.6000537521       -0.4712183366       12.4231897732
  C         1.5900910657       -1.1681874398       13.0972344592
  C         1.5431254587       -1.1078852505       14.5674348985
  C         2.6421074860       -0.4847647867       15.2745980446
  C         5.6500484012        1.6952685030       13.0860454779
  C         4.5906881657        1.0752205928       12.3676854169
  C         4.4085352945        1.3951993732       10.8991463501
  C         3.4555258974        2.2605059421       10.4295781045
  C         3.4413612801        2.4118346752        9.0290436474
  C         4.3239879383        1.7643425255        8.2319102208
  C         5.2716619113        0.8671783751        8.7085578502
  C         5.2912608591        0.7121287535       10.0516076614
  H         6.0171584627        0.0130564474       10.4793606250
  H         6.0076860651        0.4918035457        8.0088078542
  H         4.3252766038        1.9348345963        7.1557375704
  H         2.7008867474        2.9926521517        8.5049334698
  H         2.6698517298        2.8630223426       10.9833552782
  C         6.8087629646        2.2416993675       12.3765332568
  C         7.9480613597        2.6545579739       13.0674946006
  H         8.8160719064        2.9304347147       12.4743581182
  H         6.7567816365        2.1634184525       11.2860204205
  C         2.6870573941       -0.8802872098       16.7814104641
  C         3.2223510915       -2.1072817177       17.0791721869
  C         3.0265647115       -2.6699861881       18.3407829261
  C         2.3078530154       -1.9684536361       19.2899189415
  C         1.6707881423       -0.7941914078       18.9850148693
  C         1.9406756488       -0.1369843536       17.7143392626
  H         1.4070775611        0.7829578136       17.4273226542
  H         1.1410970661       -0.3273510839       19.7491563337
  H         2.2798567318       -2.4129352947       20.3452353975
  H         3.5807201104       -3.5642966897       18.5972677451
  H         3.9016316224       -2.6017382248       16.3418127944
  C         0.5127549515       -1.7515643256       15.2332993224
  C        -0.5747220631       -2.2529440522       14.5577334561
  C        -0.5368127168       -2.4413115429       13.1736955049
  C         0.5976566011       -1.9685543827       12.4819445048
  H         0.7272564158       -2.1187716702       11.3851176782
  H        -1.3344992232       -3.0561575392       12.7001130383
  H        -1.4270044183       -2.4694945236       15.1100350739
  H         0.4755703822       -1.7705956906       16.3053753648
  C         2.7244882241       -0.8826895056       10.9737803042
  C         3.7469833612       -1.8132918310       10.6844841966
  C         3.8644388328       -2.2488555068        9.3749770127
  C         2.8795970991       -1.8939987179        8.4610274918
  C         1.9145310873       -0.9493121290        8.7340222024
  C         1.8241163764       -0.4386076781       10.0322825765
  H         1.2177446786        0.3764902097       10.2896311006
  H         1.2467671358       -0.5593008050        7.9605954111
  H         3.0486397193       -2.3531231970        7.4666083259
  H         4.5399297778       -2.9822570570        9.0211987200
  H         4.4848019672       -2.1911871659       11.4448895187
  C        -0.0247860239        7.1876798556       14.7015962224
  C        -0.9125680834        8.0536616804       15.4024408107
  C        -2.0594079268        8.6542110753       14.7245854249
  C        -3.0337497220        9.4121312874       15.4089852595
  C        -4.0911152210       10.0842936313       14.7674704814
  C        -0.9195028148        8.2920161693       16.8989422094
  C        -0.3743688314        9.4983243385       17.3588790375
  C        -0.4840360966        9.9201064125       18.6555549155
  C        -1.4376747917        9.3121449062       19.4905516098
  C        -2.0542547692        8.1118763128       19.0960853864
  C        -1.7740853696        7.6086504501       17.8159258886
  H        -3.0154201658        9.4378398598       16.4783344475
  H        -4.8386731960       10.5357762132       15.3878129742
  H         0.3302415454       10.0839592111       16.7474351375
  H         0.0765910573       10.8117306294       18.9405787006
  H        -1.6119867729        9.6785624633       20.5065980027
  H        -2.8098247496        7.6728880221       19.7106941361
  H        -2.3216734239        6.7257783008       17.5157587471
  C        -0.0286378236        7.2704334851       13.1863640914
  C         0.9860128475        6.5792213150       12.4852735069
  C         2.0732163016        5.9021554359       13.1244519110
  C         2.0208181636        5.8980904682       14.5883479729
  C         1.0277647714        6.4526021165       15.3317336951
  C        -2.0950550258        8.5877693478       13.3259654838
  C        -1.0062380587        8.0459425118       12.5436128466
  C        -1.0364671696        8.4358228376       11.0512998779
  C        -0.4747806381        9.5933358172       10.5437447082
  C        -0.4842532391        9.9012191433        9.1883980784
  C        -1.2047506427        9.1060529306        8.3031342281
  C        -1.9552318995        8.0165615116        8.8440870201
  C        -1.8041581077        7.6914312567       10.2000877704
  H        -2.4411026648        6.9080894021       10.5874120257
  H        -2.6092986524        7.3430627422        8.1667158511
  H        -1.3896269175        9.1123181679        7.2388239326
  H         0.0870165663       10.7331768863        8.7506983915
  H         0.0903526043       10.1801306707       11.2648882535
  C        -3.1661324684        9.2495504134       12.6832398285
  C        -4.0646076728       10.0802967669       13.3458563785
  H        -4.7098665854       10.6346407881       12.6946799938
  H        -3.1767751121        9.2457297447       11.6015119510
  C         1.0807777690        6.2533097217       16.8035769651
  C         0.4334720109        5.1640703470       17.3618590678
  C         0.5174970507        4.9396242532       18.7103064457
  C         1.2562838973        5.7321753076       19.5542921301
  C         1.8574940853        6.8787131862       19.0326138900
  C         1.7374228013        7.1428574349       17.6975774218
  H         2.2406638728        8.0685045315       17.3760522546
  H         2.3926654112        7.5448301783       19.7050657618
  H         1.3788866580        5.4832261366       20.5923208164
  H         0.0797096910        4.0480135093       19.1660764821
  H        -0.1549327630        4.5059668462       16.7305706729
  C         3.1907393415        5.3489642165       15.2189431744
  C         4.2430844880        5.0023251204       14.4259958161
  C         4.2146395030        4.8524492265       12.9936822383
  C         3.0956763295        5.2779235845       12.3327582921
  H         2.9601286221        5.2355883732       11.2738695778
  H         4.9221963436        4.1164530711       12.6197836387
  H         5.1918563074        4.7865458764       14.9115310431
  H         3.3485226343        5.4008068551       16.2768510562
  C         0.8703006328        6.2408702810       11.0539814603
  C         0.1535294711        5.1147409119       10.5945396572
  C         0.0910576617        4.7857006438        9.2174365895
  C         0.9456215005        5.4024227311        8.3306886246
  C         1.7453904163        6.4952724809        8.7620927672
  C         1.5477658008        7.0284115322       10.0214971757
  H         2.0763369206        7.9120603788       10.3016510052
  H         2.4799532233        6.9023745583        8.0783725428
  H         1.0440760086        5.1328076331        7.2661392390
  H        -0.5440304105        3.9487637514        8.9340650153
  H        -0.3614933473        4.5142022031       11.3527011423
