140

  C        14.2076638150        0.1815976184        1.1811833523
  C        15.2439464113        0.7902079021        1.9555463056
  C        16.2881507031        1.4240153426        1.2358036606
  C        17.3350024160        2.0438029282        1.9581612434
  C        18.3655045291        2.7230648839        1.4311884499
  C        15.2883305047        1.1540529218        3.4477819010
  C        14.3858435244        2.1799001062        3.8731177938
  C        14.3292087067        2.5488958157        5.1799267730
  C        15.0544573210        2.0117212374        6.2190500464
  C        15.9681183899        0.9452752514        5.8083149241
  C        16.0004040274        0.5495743172        4.4473662899
  H        17.1734399509        1.9679047464        3.0465057268
  H        19.1052151524        3.2588816505        2.0553165362
  H        13.6713147476        2.7195936815        3.2231519920
  H        13.7914505029        3.4754326051        5.4179584866
  H        14.7753467244        2.2889524183        7.2348424295
  H        16.5775830418        0.4913325875        6.6033463325
  H        16.6738056299       -0.2589813321        4.1917284121
  C        14.3600022840        0.1959094093       -0.3284488773
  C        13.4096860262       -0.5018495900       -1.1048543792
  C        12.2743214322       -1.0552110220       -0.4784317682
  C        12.0737458284       -1.0813857011        0.9978404827
  C        13.1358408081       -0.5742927075        1.8012867698
  C        16.3601576181        1.5493708156       -0.1749566359
  C        15.3626308853        0.9904796012       -0.9650046312
  C        15.3516420920        1.3575364425       -2.4434187806
  C        14.8259478249        2.5172809240       -2.9190302858
  C        14.7272996015        2.8244403661       -4.3103634840
  C        15.3361718263        2.0427790090       -5.2419764034
  C        15.9728065392        0.8473543550       -4.7541184186
  C        15.9522313792        0.5061063426       -3.4135462224
  H        16.4753806038       -0.3643976042       -3.0452606547
  H        16.5004089470        0.2393568395       -5.5007840644
  H        15.4134549084        2.2485304618       -6.3134406852
  H        14.1668981529        3.7325001908       -4.6158980162
  H        14.2852035066        3.1459277922       -2.2438846625
  C        17.5154035032        2.2551789304       -0.7771716433
  C        18.5421741964        2.7931565369        0.0242873010
  H        19.5160177068        3.1943567796       -0.3302839561
  H        17.6062862626        2.2437624551       -1.8782986602
  C        13.1057658299       -0.8717745239        3.2425482505
  C        13.9369209694       -1.8515806822        3.8232884513
  C        13.6453504754       -2.3183925658        5.1239625829
  C        12.5893671646       -1.8362649836        5.8551124983
  C        11.6918819995       -0.9075081638        5.2430668902
  C        11.9407974545       -0.4364882119        3.8990147917
  H        11.4643438926        0.3974142518        3.4008339770
  H        10.9821789407       -0.4406750077        5.9049723113
  H        12.4124663337       -2.1909090750        6.8885572699
  H        14.2466891444       -3.0998032672        5.5344548350
  H        14.7510655470       -2.2903802092        3.2750078525
  C        10.9026831928       -1.7741024118        1.4748450948
  C        10.0249181538       -2.3566543179        0.6366522742
  C        10.2368549173       -2.3077563931       -0.7668524441
  C        11.2990740919       -1.6893303782       -1.3178518890
  H        11.3643434869       -1.6451583964       -2.3592658408
  H         9.3936391003       -2.6686464701       -1.3955206632
  H         9.2655738956       -3.0563977819        1.0401104769
  H        10.7225583750       -1.8556903525        2.5270893085
  C        13.4682463130       -0.8751456490       -2.5678497662
  C        14.1157531035       -2.1125566602       -2.9531983495
  C        14.2853111808       -2.4206909175       -4.2850627201
  C        13.6411170867       -1.5651573301       -5.2213317483
  C        12.8116323347       -0.5335482723       -4.9007422633
  C        12.7542332954       -0.1725110196       -3.5439587797
  H        12.1458824136        0.6676284176       -3.2269120454
  H        12.1960944748       -0.1000085905       -5.7017076267
  H        13.6429292313       -1.8769432489       -6.2621264921
  H        14.7922537314       -3.2726104290       -4.6371056484
  H        14.5037048082       -2.7455227344       -2.1472559137
  C        10.5661306401        7.4931493610        0.8570700911
  C         9.5108073239        8.1808482279        1.4939085283
  C         8.5188957007        8.7887215122        0.6342173163
  C         7.2985304174        9.2958003882        1.2161542290
  C         6.3041580803        9.7458345521        0.4312866172
  C         9.5231214108        8.5789982508        2.8977781718
  C        10.3504340993        9.6003324781        3.4053834160
  C        10.3624104720        9.9900456608        4.7384925711
  C         9.5900742357        9.2499155559        5.7036977750
  C         8.7266437172        8.1971462778        5.2508142627
  C         8.6834329078        7.8979325110        3.8521787459
  H         7.2372400652        9.2409368792        2.3071771327
  H         5.3767441967       10.0710844582        0.8602240176
  H        10.9587882695       10.0783246758        2.6880306672
  H        11.0150186523       10.8645960868        5.0474034396
  H         9.5530234027        9.7508838348        6.6897433116
  H         8.0120670946        7.6926428903        5.8803688993
  H         8.2484885704        7.0765540283        3.2707519202
  C        10.6587044250        7.4644341679       -0.6518213962
  C        11.7283351564        6.6838276146       -1.2390454207
  C        12.6445542758        5.9817785858       -0.4079067170
  C        12.5422719487        6.0520143594        1.0622632226
  C        11.4374579460        6.6338967019        1.6237987681
  C         8.6949241543        8.9083477932       -0.8107264682
  C         9.8763536116        8.3942412764       -1.4264499464
  C         9.9875332373        8.7166828723       -2.9263687179
  C        10.9006041752        9.6810094927       -3.4070550718
  C        10.9048864750        9.9570883672       -4.7980348219
  C        10.1367750257        9.2489433032       -5.7398396438
  C         9.2922902773        8.2815328457       -5.2149341302
  C         9.1584777000        8.0573968292       -3.8458700911
  H         8.4082950388        7.3018406372       -3.5528299228
  H         8.6306285422        7.7704567675       -5.9037372951
  H        10.2523066270        9.4283826677       -6.8471864043
  H        11.5676151306       10.6671861770       -5.1700821367
  H        11.6151028398       10.1430677081       -2.7311001507
  C         7.6120102084        9.5255341496       -1.5152293965
  C         6.4652470936        9.7965765013       -0.9435900835
  H         5.5497970651        9.9668368808       -1.4271574271
  H         7.5951576146        9.5904978071       -2.5927827425
  C        11.3442374821        6.4244499443        3.1302175167
  C        10.7419447439        5.2575087392        3.6267914774
  C        10.7327019978        4.9479346087        5.0077637633
  C        11.5576896517        5.7091520510        5.8555796604
  C        12.2043048358        6.8959540091        5.3292888048
  C        12.0020011329        7.3014883386        4.0266518346
  H        12.4899383140        8.1520569630        3.5572153602
  H        12.9620225792        7.4265239497        5.8889969737
  H        11.7361315895        5.3810314676        6.8553342792
  H        10.1404377635        4.1209933145        5.3965103439
  H        10.1054304716        4.7008603166        2.9819179066
  C        13.6518269988        5.5070306312        1.8249941496
  C        14.7127669364        4.8326782890        1.1980484092
  C        14.7360810781        4.6472453448       -0.1943655754
  C        13.7306191997        5.2574718826       -0.9282048867
  H        13.8801798046        5.2741719711       -2.0452078910
  H        15.6414726520        4.2468646832       -0.6286622711
  H        15.5945165069        4.4175929561        1.7269254891
  H        13.6734524300        5.6272123461        2.9315591315
  C        11.6845149533        6.3750157463       -2.7037399767
  C        10.9000591808        5.3634069936       -3.2119465784
  C        11.0757652838        4.8030993348       -4.4627069413
  C        12.0263122475        5.2804609809       -5.3014501893
  C        12.8005332354        6.4192417513       -4.8431581909
  C        12.6072956004        7.0102047253       -3.5914058142
  H        13.2949212803        7.7940634992       -3.1956815088
  H        13.4765069605        6.8969243232       -5.5598122807
  H        12.3016163746        4.9756236778       -6.3507502396
  H        10.3871767711        3.9488749857       -4.7258613223
  H        10.2224836820        4.9044039454       -2.5294263345
