140

  C         3.6766750450        0.1209340645       14.5022855520
  C         4.8616273426        0.8680888920       14.9694740612
  C         5.8740950185        1.4673885731       14.1754755069
  C         7.1336636903        2.0242098084       14.5953495984
  C         8.0878373079        2.5559333681       13.6907713411
  C         4.8815871944        1.2200465347       16.4092590383
  C         4.0992120504        2.2793820402       16.8971942686
  C         3.9820960627        2.5835631005       18.2563730486
  C         4.6958305290        1.7988350736       19.2304789344
  C         5.6055531627        0.8613289685       18.7283144975
  C         5.6191057663        0.5254800539       17.3958561339
  H         7.3764678656        2.1698652299       15.6167184453
  H         8.9940786315        3.0334193167       14.0932884823
  H         3.5904437533        2.9873326643       16.2763508962
  H         3.1781013353        3.2938282766       18.5857476393
  H         4.6587883687        2.0668398143       20.2599684570
  H         6.2697161333        0.3605736380       19.4439482852
  H         6.2909776623       -0.2495181419       17.1731551947
  C         3.6494791891       -0.0430995704       13.0454682309
  C         2.6299055880       -0.8851505585       12.3945802648
  C         1.5268960004       -1.3909966920       13.2380921916
  C         1.6179405428       -1.3356849121       14.6442333364
  C         2.7188592960       -0.6215497757       15.2176913070
  C         5.6917340340        1.3733880825       12.7239217020
  C         4.5468653694        0.6742966369       12.2122320880
  C         4.3037681929        0.9313695634       10.7507104286
  C         3.5066790165        1.9906329321       10.2989054052
  C         3.6296581617        2.3934969171        8.9322007591
  C         4.3754126168        1.6187122182        7.9665023035
  C         5.0320311354        0.4752854978        8.4636960329
  C         5.0356839973        0.1904609328        9.8616594846
  H         5.5472699219       -0.7177255460       10.0996459382
  H         5.6915085392       -0.0145275253        7.7226559405
  H         4.5665821711        1.9526928638        6.9423149776
  H         3.0148115368        3.1947360451        8.5078853222
  H         2.8667793901        2.4451409719       11.0311171971
  C         6.5362187923        2.1436515471       11.9105021795
  C         7.8006531209        2.7071083377       12.3356634486
  H         8.3068181581        3.3276410460       11.6052910443
  H         6.0706655767        2.3307516676       10.9695755390
  C         2.7882027412       -0.9143401986       16.6920661235
  C         3.2049092140       -2.2216734356       17.1182160101
  C         3.0642587053       -2.6054521098       18.4212721983
  C         2.3542407277       -1.8601012794       19.4006100694
  C         1.8391307724       -0.6167572112       18.9346810302
  C         2.0364060397       -0.1497672460       17.5999355247
  H         1.6749800859        0.8356124760       17.3503049049
  H         1.1160849018       -0.1347791377       19.5725577045
  H         2.1901023515       -2.1959286686       20.3764095584
  H         3.5833257898       -3.5323665782       18.7032408579
  H         3.7527113335       -2.7588114853       16.3840772594
  C         0.5553328455       -1.8563478655       15.4484964120
  C        -0.5495999614       -2.3297672997       14.8365791681
  C        -0.5472233540       -2.5580369585       13.4763382577
  C         0.4510207210       -2.1406529001       12.6660289989
  H         0.3310697544       -2.2061793741       11.6291287835
  H        -1.4242355812       -3.1473001331       13.0912435182
  H        -1.4238133910       -2.5959436787       15.3805931287
  H         0.5692291127       -1.7131470396       16.5649674238
  C         2.6604227686       -1.3565815611       11.0096185746
  C         3.4738463099       -2.4032104603       10.5894703977
  C         3.4085292232       -3.0382171601        9.3324163905
  C         2.5990319308       -2.5159271923        8.3409170084
  C         1.8046826780       -1.4449497574        8.7105659252
  C         1.7890774670       -0.8776178644       10.0065224238
  H         1.0494076003       -0.0867622591       10.2394267095
  H         1.0765734581       -1.0199406064        7.9452974629
  H         2.3882289024       -3.0213907220        7.4201402439
  H         3.9559263080       -3.9503977442        9.2230879966
  H         4.2773781911       -2.7077234292       11.2318092856
  C         0.1121711462        7.0470263419       14.7661367612
  C        -0.8182506726        7.9173646427       15.4695125095
  C        -1.9286363482        8.5021966810       14.7491108607
  C        -2.9345206278        9.3065747741       15.4383589390
  C        -3.9368772138        9.8967279119       14.6735147060
  C        -0.8353039402        8.2274576724       16.9576498852
  C        -0.3080021211        9.4992613481       17.4314210994
  C        -0.5717192658        9.9881673623       18.6848376425
  C        -1.3715035224        9.2284450978       19.5984015722
  C        -1.9171553322        8.0051173301       19.1125602172
  C        -1.4749428444        7.4466009474       17.8774331325
  H        -2.8620732248        9.3301593719       16.5175129840
  H        -4.6393597818       10.5665604639       15.1948689211
  H         0.3226992664       10.1264125808       16.7722884649
  H        -0.2910350381       11.0347341518       18.8915084554
  H        -1.6683442075        9.5808565321       20.5992890434
  H        -2.6281353927        7.4191375708       19.6638490443
  H        -1.9299362213        6.5289155132       17.4872554611
  C        -0.0245595015        6.9532534427       13.2821133391
  C         1.0291793938        6.2660331270       12.5204114120
  C         2.2314071171        5.8898633661       13.1413855807
  C         2.3248509644        6.0389754877       14.5963919017
  C         1.2096393420        6.4261718073       15.3799347908
  C        -2.1149113462        8.3110952531       13.2888604893
  C        -1.0550469023        7.6244982220       12.6085122040
  C        -1.1811674135        7.8943849019       11.0887496388
  C        -0.6194348794        9.1609503117       10.7243251840
  C        -0.6276583851        9.4685247220        9.3609424866
  C        -1.2989109173        8.6458897357        8.4201292165
  C        -1.9999959474        7.5320292799        8.8690358229
  C        -1.8903827336        7.1222496515       10.1832462845
  H        -2.2732970757        6.1834833927       10.4561229030
  H        -2.5668304405        6.8847275184        8.1112813354
  H        -1.2476219907        9.0294789425        7.4234181065
  H        -0.1373658080       10.3738992570        9.0417152658
  H        -0.0605431168        9.8031510095       11.3818394568
  C        -3.2527787556        8.9239025450       12.6296960113
  C        -4.1635890849        9.7464982402       13.2792963860
  H        -4.9415829074       10.2600999369       12.7121977641
  H        -3.4221788193        8.7596495106       11.5694127148
  C         1.2912618850        6.0860903467       16.8802808909
  C         0.5545516580        4.9468250123       17.2816110397
  C         0.5083219771        4.5014729140       18.5975483352
  C         1.2356843957        5.1898079546       19.5827653955
  C         2.0168980102        6.3215792389       19.2108805723
  C         2.0112383325        6.7861040388       17.8871376561
  H         2.6961489097        7.5791392482       17.6146870081
  H         2.5872388011        6.9090280919       19.9250448270
  H         1.3437682192        4.7690447720       20.5825935463
  H        -0.0660159263        3.6328357654       18.8889618223
  H        -0.0087100261        4.3243595318       16.5663966175
  C         3.4822700710        5.3739433528       15.1689508950
  C         4.4645523507        4.7413814187       14.4061861820
  C         4.3700131056        4.7336704389       12.9481621344
  C         3.2287852104        5.2315380559       12.3661169610
  H         3.1149250112        5.0509526716       11.3131839947
  H         5.1329646151        4.1698368860       12.3940608952
  H         5.3734219955        4.3745174777       14.8771123307
  H         3.4972704006        5.2874457410       16.2418865953
  C         0.9346812809        5.8517141954       11.0952162265
  C         0.2694440383        4.6474036568       10.7277922537
  C         0.2191909179        4.2957939082        9.3405478171
  C         1.0450224648        4.9031635269        8.4051176863
  C         1.8626801589        5.9986907679        8.8067223742
  C         1.6598676543        6.5199089808       10.0717822838
  H         2.1955473785        7.4032749097       10.4129312364
  H         2.5552247861        6.4453195295        8.0863233786
  H         1.1394442834        4.5211142213        7.3821888930
  H        -0.3041700577        3.3987527082        9.0681845918
  H        -0.3144369238        4.0501493754       11.4553604238
