140

  C        13.9988678394        0.0179121147        1.3449765676
  C        14.9479309604        0.8145047098        2.0577990315
  C        16.0945163869        1.3170178929        1.3796036296
  C        17.1572039671        2.0358070800        2.0697260863
  C        18.2613000904        2.6068078513        1.4642493557
  C        14.6857056302        1.2330174025        3.4423724873
  C        13.7332229311        2.2706014123        3.6611985054
  C        13.7584047636        2.9072735984        4.8764741170
  C        14.6908503945        2.6690322166        5.8274170167
  C        15.5938689737        1.5271931906        5.6556459960
  C        15.5101052699        0.8100456898        4.4545382468
  H        17.0890245354        2.2119711255        3.1758366631
  H        18.9985157905        3.1982387511        2.0539966085
  H        13.0632547677        2.5721029796        2.8993300577
  H        13.1161359831        3.7741047358        5.0725742967
  H        14.8094524724        3.0989392824        6.7751379414
  H        16.2962851757        1.2522777854        6.4166396691
  H        16.1712820109       -0.0795709836        4.3036329473
  C        14.0121500882       -0.0019347948       -0.1096364631
  C        12.9901197956       -0.6730748938       -0.8533111320
  C        11.8694813871       -1.2478863173       -0.1534400618
  C        11.9527451686       -1.3043675982        1.2583357100
  C        13.0709230165       -0.7531589354        1.9831791977
  C        16.1351962204        1.2895003025       -0.0291471635
  C        15.1053927597        0.7415880379       -0.7768320881
  C        15.0511684252        1.0389673922       -2.2112145009
  C        14.2339924971        2.0887376138       -2.5795331844
  C        14.0955476875        2.4478558050       -3.9468722268
  C        14.9392593286        1.8292490509       -4.8808735158
  C        15.9406843053        0.9222558108       -4.5079318268
  C        15.9876864278        0.4869963404       -3.1606147716
  H        16.6476219075       -0.3796499422       -2.9426615084
  H        16.6506244031        0.5649976710       -5.2616945645
  H        14.8697408861        2.0455292230       -5.9504677659
  H        13.3792312249        3.2430496278       -4.2489910079
  H        13.5366752018        2.3889048557       -1.8181052583
  C        17.3061885633        1.8398364014       -0.6346120658
  C        18.3203010261        2.4851554728        0.0371165972
  H        19.1842817506        2.8014969519       -0.5030681462
  H        17.4829861560        1.8913409219       -1.6960231668
  C        13.1867679739       -1.1841144319        3.3839763852
  C        14.0400714433       -2.2264060631        3.6581825782
  C        14.0975191367       -2.7435547270        4.9439817309
  C        13.2446144929       -2.2590584920        5.9685980258
  C        12.3862825508       -1.2286753428        5.7383657909
  C        12.4071170970       -0.6881790380        4.4642752872
  H        11.8366626819        0.2385965579        4.2129954861
  H        11.6959925061       -0.8011439992        6.5736801417
  H        13.3124372415       -2.7357225920        6.9010030303
  H        14.6722377877       -3.6637799149        5.1172423880
  H        14.6730638990       -2.5887427691        2.8190683238
  C        10.8638528910       -1.9413726073        1.9737132634
  C         9.8325654391       -2.5585753071        1.3236936906
  C         9.7862065530       -2.6216462150       -0.1012578813
  C        10.8260719637       -1.9897371554       -0.7651820798
  H        10.7877514458       -1.8710143139       -1.7988955376
  H         8.8992921583       -2.9209393422       -0.6363986194
  H         8.9195707842       -2.8978620388        1.9469268680
  H        10.7517724699       -1.8182525465        3.0808902266
  C        13.0481821374       -0.8811736746       -2.3441264251
  C        13.8815276964       -1.9256558746       -2.7959122186
  C        13.8938915206       -2.3097287714       -4.1916848084
  C        12.9873449319       -1.7257342985       -5.0436695793
  C        12.0267717853       -0.7738567784       -4.5611365350
  C        12.1294690938       -0.3459202726       -3.2578250388
  H        11.4407834827        0.4610804119       -2.8626257166
  H        11.2413189583       -0.2943727158       -5.1480038061
  H        12.9813677914       -1.9695923239       -6.1121488674
  H        14.6642129339       -3.0028981641       -4.4849762257
  H        14.4359776634       -2.3959782269       -2.0463166581
  C        10.2618689418        7.2365345053        1.1528631173
  C         9.2743486282        8.0333162515        1.8597918995
  C         8.2003759950        8.6099611323        1.1263957486
  C         7.1840949221        9.3460743079        1.8051844464
  C         6.1788721629        9.9419735485        1.1605028374
  C         9.4388018324        8.4005084819        3.3050548358
  C        10.3858887704        9.2165762727        3.8498843521
  C        10.4387843340        9.5399010966        5.2306064850
  C         9.3270164567        9.1961182192        6.0578555756
  C         8.2429675473        8.4314993869        5.5175382248
  C         8.3772049653        7.9365448361        4.1793891861
  H         7.3010816780        9.4126659768        2.8772469878
  H         5.6006707698       10.7193717912        1.7052072938
  H        11.1859288587        9.5614093832        3.1635580741
  H        11.2908798293       10.2276001962        5.5404621759
  H         9.4316798180        9.5839033659        7.1237656168
  H         7.4316020791        8.0337869707        6.0891389007
  H         7.5722513718        7.3231247912        3.8249543800
  C        10.2366114269        7.1571015855       -0.3644049365
  C        11.3129337056        6.5215746845       -1.1337647836
  C        12.3764137289        5.9384478643       -0.4085851247
  C        12.4218827725        6.0264960250        1.0496666894
  C        11.4639815305        6.7106140434        1.7498330259
  C         8.1464288421        8.5432441760       -0.2758481733
  C         9.1208288652        7.8377802066       -1.0133422915
  C         9.2482855466        8.3103001982       -2.4359656649
  C        10.0787610132        9.3735874902       -2.7270796511
  C        10.1529220980        9.9392511060       -4.0035726264
  C         9.5182094357        9.2921403711       -5.0788447259
  C         8.7133167450        8.2055237439       -4.7868836904
  C         8.6372302469        7.6651329526       -3.4910777256
  H         8.0827205249        6.7667818512       -3.2839083057
  H         8.1348345268        7.7432674970       -5.6598093777
  H         9.6531968277        9.6133484669       -6.0790181972
  H        10.8003894206       10.7875893001       -4.1527321116
  H        10.7327956009        9.7501690714       -1.9165333911
  C         7.1140505140        9.3239632600       -1.0345713944
  C         6.1000301617        9.9956327645       -0.3255243118
  H         5.3335038511       10.6183879779       -0.7929232430
  H         7.1775635048        9.2589067296       -2.1248169153
  C        11.5512355861        6.4045517044        3.2677583119
  C        10.7966001011        5.3442561155        3.7540742783
  C        10.7222525608        4.8744708600        5.1094949677
  C        11.5410833579        5.4737968754        6.0153431034
  C        12.3355794988        6.5418282427        5.5845724094
  C        12.3899068780        6.9645028021        4.2824172964
  H        12.9584974532        7.8826942477        4.0625632225
  H        12.8258341116        7.0724633615        6.3843926293
  H        11.3848990918        5.2523742105        7.0912352471
  H         9.9454518240        4.1521577490        5.2927536515
  H        10.2155145156        4.8237085738        2.9955431638
  C        13.5293701920        5.4447852230        1.7155262345
  C        14.5195038924        4.7519758501        1.1269555470
  C        14.4492665152        4.5810871605       -0.3313560292
  C        13.4326958924        5.1774044398       -1.0788296994
  H        13.3489486216        4.8685121143       -2.1305650469
  H        15.1464058387        4.0077316877       -0.9768736271
  H        15.3574219351        4.3056105171        1.6689421150
  H        13.6101883872        5.5900130554        2.7632797696
  C        11.1501276444        6.2012004227       -2.5741375717
  C        10.3427013867        5.1156822061       -2.8470385097
  C        10.3694199131        4.5008868501       -4.1412458794
  C        11.0562280601        5.0750474510       -5.1389324147
  C        11.8241166679        6.2515976812       -4.8919863978
  C        11.8488864248        6.8066551011       -3.6483101022
  H        12.3906047583        7.7760491441       -3.5474939274
  H        12.4961958659        6.5618477293       -5.6893534161
  H        11.0902762964        4.5624568029       -6.0965877215
  H         9.9565382307        3.5574985934       -4.3171907359
  H         9.7372982522        4.8254168809       -1.9616003563
