140

  C         2.0152636618        0.7397128408       14.6970302294
  C         3.0706133964        1.4361590388       15.4560255034
  C         4.1537202126        1.9897071980       14.7241798687
  C         5.2558273406        2.6776380856       15.4163369265
  C         6.2077830336        3.3170717393       14.7179730130
  C         2.9334022535        1.9000448374       16.8641588133
  C         2.0177774019        2.9414715218       17.0887272815
  C         1.8577502943        3.4696734090       18.3917746418
  C         2.5926034053        2.8564111036       19.4267689559
  C         3.4255311047        1.7769053806       19.1526042754
  C         3.5997594261        1.2912156686       17.8940185313
  H         5.1542705656        2.6422393115       16.5118662105
  H         7.0074992982        3.8342385310       15.3210432616
  H         1.5000459576        3.3686053494       16.2140395940
  H         1.1886161032        4.2808761636       18.6353446757
  H         2.5309874701        3.1768007303       20.4722918854
  H         4.0037646279        1.3273922530       19.9748326132
  H         4.1518148648        0.3880602574       17.8093707447
  C         2.0722556176        0.6879307186       13.2390462732
  C         0.8860555178        0.1971353881       12.6056115734
  C        -0.1468496962       -0.4295441313       13.3337091947
  C        -0.1028134053       -0.4570926340       14.7598257037
  C         0.9944226470        0.1304717199       15.4948687295
  C         4.1209365394        2.0149532774       13.2784378068
  C         3.0342787887        1.4535935078       12.5551981433
  C         2.9735237296        1.7568140844       11.1043370603
  C         2.1768930660        2.9082843078       10.7212102328
  C         2.1540225756        3.3636436993        9.3958236260
  C         3.0523848774        2.8811344976        8.3847230036
  C         3.8171197457        1.7695877578        8.7238483463
  C         3.7342750117        1.2180139028       10.0208807383
  H         4.3719484196        0.3565959732       10.2193777911
  H         4.4636496049        1.3205742123        8.0124725404
  H         3.0387515828        3.2931891771        7.4161532029
  H         1.5951381873        4.2052513080        9.0552095082
  H         1.4987847542        3.4484492871       11.3430930959
  C         5.2013119187        2.7114359978       12.6274189782
  C         6.2513843924        3.3020711271       13.2715251994
  H         7.0518912867        3.8406780579       12.7441968320
  H         5.2649219633        2.7977369199       11.5154490193
  C         1.1138472287       -0.3265208183       16.9589957237
  C         1.8647208114       -1.5014451771       17.2699635923
  C         1.7685009993       -2.0260615883       18.5576622493
  C         0.8478416869       -1.5024175627       19.4680597451
  C         0.1853490372       -0.3235520247       19.2071535184
  C         0.3274549619        0.2537153755       17.9836733426
  H        -0.3027256346        1.1006641860       17.6597915477
  H        -0.6690381825       -0.0976492713       19.9001037563
  H         0.6165602375       -2.1160609653       20.3596077367
  H         2.3470128927       -2.9337827769       18.8401094569
  H         2.3616666809       -1.9127953805       16.3925811060
  C        -1.1960494047       -1.1689561923       15.4505708252
  C        -2.2947660432       -1.5882686363       14.7614600622
  C        -2.3396999446       -1.5489986344       13.3313414540
  C        -1.2485410503       -1.0304569673       12.6480211248
  H        -1.2861580539       -1.1177745336       11.5510409649
  H        -3.2042625282       -2.0253527118       12.7890512439
  H        -3.1684700766       -1.9358547860       15.3333394466
  H        -1.1703931160       -1.0969944365       16.5673439078
  C         1.0409668896       -0.2135044593       11.1562430910
  C         1.8267880643       -1.3921841085       10.9661982069
  C         2.0091854879       -1.8610306140        9.6809545373
  C         1.2193256011       -1.4123778501        8.6036147045
  C         0.2383988780       -0.4110447737        8.8572061286
  C         0.1837904432        0.1437869475       10.1257556336
  H        -0.3914123558        1.0851448836       10.1810582181
  H        -0.4468511297       -0.0696259789        8.1426873839
  H         1.3642224948       -1.9028805434        7.6227309984
  H         2.6945165395       -2.6513158343        9.5523300530
  H         2.4226586119       -1.7727839398       11.7757825300
  C        -1.6468276568        7.9782912448       14.8345099399
  C        -2.6489024239        8.7052237083       15.5261940164
  C        -3.8193857210        9.1165345191       14.8565180660
  C        -4.9034559498        9.7660252022       15.4701175682
  C        -5.9540325741       10.2213520573       14.7562437906
  C        -2.5992005850        8.9757965777       16.9802854891
  C        -1.6755102268        9.9416192245       17.4459792475
  C        -1.7399191314       10.4785652908       18.7334238427
  C        -2.6032500276        9.8261622113       19.6661673115
  C        -3.4314532758        8.7775854352       19.2602677786
  C        -3.4405274071        8.3636163458       17.9150003383
  H        -4.7365671760       10.0469876085       16.5182180782
  H        -6.6986363806       10.8211610227       15.2143980359
  H        -0.9808228577       10.4736214875       16.8256890996
  H        -1.0746719030       11.2674019690       19.0977906384
  H        -2.6417909172       10.2590633730       20.6875851039
  H        -4.1551894853        8.4364039743       20.0311642562
  H        -4.1629927397        7.5641858141       17.5959658526
  C        -1.6721663797        7.9262449151       13.3888194744
  C        -0.5829402199        7.3429179116       12.7165747950
  C         0.5270046148        6.7921487223       13.4192912367
  C         0.5085161941        6.7480845281       14.8274343833
  C        -0.6652573762        7.2156339161       15.5794075006
  C        -3.8461540031        9.0691021094       13.4245919445
  C        -2.7620478275        8.5532049756       12.6730710482
  C        -2.7117847214        8.9007645501       11.2556405873
  C        -1.8355751330        9.9228348660       10.7462212249
  C        -1.9754005662       10.3408271564        9.4094310148
  C        -2.8400703882        9.6829727908        8.5592093277
  C        -3.7028789682        8.7077643574        9.0073694725
  C        -3.6150338772        8.2608777851       10.3231261144
  H        -4.2179936838        7.4329019787       10.6431582685
  H        -4.4164473417        8.3231124482        8.3914306319
  H        -2.8911313728       10.0685042253        7.5287400571
  H        -1.2776532721       11.1199845728        9.0180948085
  H        -1.0876392271       10.3678005049       11.3934960138
  C        -5.0069428316        9.5316230169       12.6693940196
  C        -6.0337851054       10.1414781510       13.3418252567
  H        -6.9406501223       10.5889118896       12.8499714898
  H        -5.0418060496        9.3810503363       11.6194128371
  C        -0.6388774755        6.9474090143       17.0776690396
  C        -1.5484161236        6.0044943476       17.5379046888
  C        -1.4516615192        5.5006113379       18.8532187779
  C        -0.5216227851        5.9766776673       19.7672121562
  C         0.4153085826        6.9152459909       19.2889240670
  C         0.4131065955        7.3704528886       17.9723241512
  H         1.0422264685        8.1372539252       17.6444251127
  H         1.1528398334        7.4214345556       19.9734278780
  H        -0.3528694244        5.5584701425       20.7504392767
  H        -2.0303409339        4.6093369790       19.1052251294
  H        -2.2865021444        5.6889155428       16.8526799122
  C         1.5035322421        5.9637240109       15.5149713223
  C         2.5693708800        5.3989234192       14.8433974633
  C         2.6240231165        5.4736239082       13.4563972542
  C         1.6723790669        6.1935568202       12.7287747983
  H         1.7587096869        6.2067060352       11.6324301303
  H         3.4304249366        5.0612869582       12.8884488540
  H         3.3786648020        4.8420641370       15.3864712263
  H         1.4333722632        5.7024255100       16.5699246721
  C        -0.6358025297        6.9861157499       11.2359240770
  C        -1.4343880936        5.9581027943       10.6942329604
  C        -1.2936364265        5.5176511141        9.3679507044
  C        -0.4338913042        6.1969146010        8.5208033741
  C         0.3561592511        7.1914697266        8.9662507393
  C         0.2942155075        7.5697221989       10.3003444468
  H         0.8107589757        8.2897153854       10.8641592902
  H         0.9571676084        7.7695622129        8.2608344879
  H        -0.3661348499        5.9903717002        7.4355071805
  H        -2.0210858022        4.7562426341        9.0644763597
  H        -2.1473326430        5.3963137946       11.2765380229
