140

  C        11.7778107973        1.0042648880        1.5424468938
  C        12.7608846071        1.6715882506        2.2315112583
  C        13.9291289844        2.2324912097        1.6059584804
  C        14.9277412606        2.9709199189        2.3172570644
  C        16.0159355188        3.5550403355        1.7014278452
  C        12.5624408228        1.9042687645        3.7128039889
  C        11.6659132261        2.9178292741        4.1076373850
  C        11.7240557197        3.4721181615        5.4153477259
  C        12.6811759297        2.9723547374        6.3668096579
  C        13.6919759418        2.0857791005        5.8308440631
  C        13.6170606036        1.5051492505        4.5374992219
  H        14.6980530489        3.2122375081        3.3390791708
  H        16.6937499367        4.2207380328        2.2886973218
  H        10.9420805182        3.2477838009        3.3885660662
  H        11.1031165241        4.2713563488        5.6713331142
  H        12.7599602346        3.3893483046        7.3802667587
  H        14.5311012801        1.8200085031        6.4524222140
  H        14.2364999696        0.6624983663        4.2095287931
  C        11.8887182565        0.9666804644        0.0347158679
  C        10.8597537843        0.2650380520       -0.7023458532
  C         9.7623940092       -0.3477731178       -0.0585708702
  C         9.7061785008       -0.3610203189        1.4041641887
  C        10.7735092187        0.2363613875        2.1960042021
  C        13.9899696045        2.1941233939        0.1423743693
  C        12.9482110859        1.6276139607       -0.6625759140
  C        12.8502511834        1.9936694783       -2.0955064934
  C        12.1911805782        3.2043795268       -2.4397612615
  C        12.1462139257        3.6435484885       -3.7796060053
  C        12.9965090698        2.9716190176       -4.7052672258
  C        13.7546806825        1.9035666040       -4.3571391214
  C        13.6931495479        1.3480659325       -3.0641632544
  H        14.2874208093        0.4563789075       -2.8368262499
  H        14.2981814988        1.3873211086       -5.1541917789
  H        13.0633250441        3.3537746874       -5.7350494656
  H        11.5413796054        4.4880781809       -4.0582901212
  H        11.5551153228        3.7160584494       -1.7468893753
  C        15.1455489213        2.7886567803       -0.4861073043
  C        16.0745977408        3.4372962792        0.2797330960
  H        16.8674185860        3.9700974307       -0.2773863635
  H        15.2702445939        2.7785442785       -1.5765081919
  C        11.0307425901       -0.2325483319        3.5857017341
  C        12.0960765533       -1.1065148397        3.8463797079
  C        12.3415203914       -1.6268156407        5.0905990439
  C        11.5662642118       -1.2886657678        6.1556206365
  C        10.3910389191       -0.4966796527        5.9232385979
  C        10.1316872837        0.0048507069        4.6784423385
  H         9.2583790291        0.6320070533        4.5479345741
  H         9.6330470736       -0.2555636067        6.6664245273
  H        11.8018291562       -1.8280688113        7.0368127569
  H        13.2259113301       -2.2850233948        5.2474595470
  H        12.7923699419       -1.4135322116        3.0221493192
  C         8.7388565689       -1.1541965392        2.0829216365
  C         7.7292680843       -1.7865748016        1.3932537918
  C         7.6932934776       -1.6304738264       -0.0513350525
  C         8.6729272920       -0.9201764745       -0.7886431660
  H         8.5592809286       -0.9150813189       -1.8501403494
  H         6.9288347356       -2.2184001284       -0.6078504999
  H         6.8392260740       -2.2266766119        1.8366368231
  H         8.7752781331       -1.0672791748        3.1340336947
  C        10.9964527862       -0.0697742765       -2.1604356590
  C        11.7216847084       -1.1884080671       -2.5730507046
  C        11.7843217030       -1.5322747574       -3.9700182959
  C        11.0561836951       -0.8610676030       -4.9111211193
  C        10.2541263022        0.2062788919       -4.4836341909
  C        10.1718413171        0.5629250694       -3.1212089593
  H         9.6201361554        1.4895447447       -2.9284649405
  H         9.7168574999        0.7802462684       -5.2943538692
  H        11.0187906877       -1.0758782427       -5.9603986016
  H        12.4769771150       -2.2750119505       -4.2963587287
  H        12.2258333007       -1.7920982672       -1.8055707969
  C         8.2991942810        8.2160599337        1.5485406848
  C         7.1991222736        8.8306626773        2.1476667517
  C         6.0658289902        9.2780011246        1.3831736497
  C         4.9308559792        9.8944430466        2.0302151341
  C         3.8777182625       10.4230255689        1.2727102611
  C         7.2832093240        9.2282822245        3.6017178249
  C         8.2937628982       10.1399755312        3.9866129247
  C         8.2668898866       10.6979287423        5.2529976793
  C         7.4190839995       10.2073313966        6.2247670853
  C         6.4602136170        9.2372835621        5.9066665524
  C         6.3492511803        8.8321407141        4.5334462291
  H         4.9391316468       10.0372148375        3.1210451489
  H         3.0663967306       10.8587348841        1.8038229516
  H         9.0293337162       10.4412932813        3.2718276713
  H         9.0252824844       11.4892522703        5.3809545344
  H         7.4157117798       10.5966720730        7.2574293037
  H         5.7505275644        8.8004847743        6.6035863316
  H         5.4693750548        8.2604914582        4.2516384122
  C         8.3329388619        8.2055254186        0.0701831806
  C         9.4563608951        7.5945375742       -0.6293975876
  C        10.5140697476        7.0026152757        0.1583991574
  C        10.4343658738        7.0152611026        1.6096069896
  C         9.3148866795        7.5547157078        2.2919469846
  C         6.1011083036        9.2436204811       -0.0396696312
  C         7.2448076338        8.7343273158       -0.6848965968
  C         7.3493832449        9.0441902531       -2.1028505282
  C         8.2818473705       10.0561250389       -2.5129221498
  C         8.3020270775       10.5937372414       -3.8600132560
  C         7.3541379415       10.0350829392       -4.7464465841
  C         6.4592057970        9.0093152192       -4.3812317538
  C         6.4269273743        8.5165443025       -3.0769274662
  H         5.6082166732        7.8997643393       -2.7418637056
  H         5.8503879858        8.6648673877       -5.1892687518
  H         7.4281258892       10.2504363902       -5.8196545117
  H         8.9809479062       11.3914107978       -4.1601721757
  H         9.0292747520       10.4807690954       -1.8106394630
  C         5.0120746560        9.8276863186       -0.7325388684
  C         3.8794015901       10.2840354737       -0.1382560938
  H         3.0876618986       10.7057416108       -0.7332748911
  H         4.9714377995        9.8871182744       -1.8043688454
  C         9.2525000001        7.2955508648        3.8167147978
  C         8.3594320930        6.2730532352        4.2425508405
  C         8.3414349011        5.8593276773        5.5504818533
  C         9.2226287001        6.3859761270        6.4872902163
  C        10.1092516844        7.3687373955        6.1084252531
  C        10.1166207715        7.8641928249        4.7371185551
  H        10.8463758267        8.6064437256        4.4977889229
  H        10.8322932870        7.7485975174        6.8382576464
  H         9.2986765026        6.2036876429        7.5598513027
  H         7.5703361714        5.1526910189        5.8040025978
  H         7.6869944165        5.8618132201        3.4741011357
  C        11.4953457896        6.3891345303        2.3264039924
  C        12.5325834244        5.7967513153        1.6936891807
  C        12.5741931887        5.7171649844        0.2325183709
  C        11.5417802649        6.2203239188       -0.5067234036
  H        11.6701805945        6.2313067086       -1.5409993215
  H        13.4730573794        5.3793245978       -0.3307655482
  H        13.3887149986        5.5308245801        2.2555475335
  H        11.5185504815        6.4146678834        3.4113286568
  C         9.2993052218        7.1382344989       -2.1004470586
  C         8.5017873991        5.9882795711       -2.4715498199
  C         8.5582687928        5.5239705760       -3.7769081949
  C         9.4767209552        6.0446217328       -4.6968287868
  C        10.2959953822        7.1176775751       -4.3431974551
  C        10.2504588234        7.5931061405       -3.0270718349
  H        10.8402191238        8.4527214540       -2.8057444145
  H        10.8851356261        7.6298247538       -5.0698708187
  H         9.5379208892        5.5927808906       -5.7038625564
  H         7.9180983960        4.6757899192       -4.0367204376
  H         7.7271559425        5.6614187626       -1.8813847166
