140

  C        11.8137525182        1.0323765040        1.5350379214
  C        12.8029872996        1.8246624665        2.1375857260
  C        13.9293689551        2.4276768554        1.4550772442
  C        14.9827049014        3.1134216124        2.1674685493
  C        16.0131846456        3.7319286480        1.4675625961
  C        12.7009920265        2.1091727972        3.5783636846
  C        11.7385991599        2.9886652605        4.1598614369
  C        11.8173096647        3.5034090000        5.4633350403
  C        12.7996980474        3.0290077634        6.2669087558
  C        13.7686933978        2.1973474335        5.7444243723
  C        13.6912435786        1.6842598626        4.4698456476
  H        14.9432661185        3.2366615288        3.2701782869
  H        16.6979376603        4.4363672003        1.9503701290
  H        11.0300996413        3.4562995652        3.5033243465
  H        11.0678458431        4.2643910355        5.7596154174
  H        12.8689719450        3.4019131198        7.2822178364
  H        14.5968835756        1.8334958693        6.3733290567
  H        14.5030155384        1.0546954327        4.1030009105
  C        11.8794508756        0.9999134836        0.0778573850
  C        10.8316172283        0.3504815383       -0.6767373043
  C         9.7021024264       -0.1629622542        0.0010000801
  C         9.6353106423       -0.2058294977        1.5023151630
  C        10.7659978818        0.3332950378        2.2064904207
  C        13.9455683071        2.3823336413        0.0417605223
  C        12.9190563015        1.6652601850       -0.6663076846
  C        12.8989378860        2.0195197856       -2.0778776023
  C        12.1529369268        3.1785510692       -2.4324883755
  C        12.2351723836        3.6943697327       -3.7072490940
  C        13.0112228370        2.9706766780       -4.6338073999
  C        13.6352485864        1.7168843410       -4.3283533273
  C        13.7015722484        1.3508251745       -2.9782222793
  H        14.1709190781        0.3834348014       -2.6659835295
  H        14.1957798282        1.2041737043       -5.1559774878
  H        12.9522638799        3.2899528818       -5.7252641188
  H        11.7074857211        4.6038953784       -3.9969066151
  H        11.7519083886        3.7984531891       -1.6010598393
  C        15.1394781714        2.8886804502       -0.6335746075
  C        16.0644306546        3.5880336869        0.0667015648
  H        16.9524134201        3.9647616556       -0.4176619483
  H        15.3551970691        2.6554639690       -1.6854349245
  C        10.9810495472       -0.1552232727        3.5950156407
  C        12.0468136523       -1.0088850587        3.7614167725
  C        12.2602153252       -1.6551920902        5.0179230497
  C        11.3533516909       -1.4155424480        6.0772234398
  C        10.4216491962       -0.3553492048        5.9624788630
  C        10.2042493479        0.2376153233        4.7212783080
  H         9.4922695768        1.0181120665        4.6555744994
  H         9.7943154914       -0.0954572047        6.7827682137
  H        11.4975168892       -1.9559063830        7.0464200408
  H        13.0214581823       -2.4387019967        5.2722033119
  H        12.7286171655       -1.2135087497        2.9491935491
  C         8.6407300181       -0.9739507706        2.2054396469
  C         7.5667101692       -1.4612639516        1.4396185598
  C         7.6257251999       -1.4173395671        0.0299762763
  C         8.5974488287       -0.7553618432       -0.7096264439
  H         8.5825842408       -0.8879903252       -1.7621277439
  H         6.8037068356       -1.8948446390       -0.4575626681
  H         6.6707791197       -1.9527568716        1.9351068413
  H         8.5238638053       -0.9315994695        3.3272326865
  C        10.9348481411       -0.0106681810       -2.0996117288
  C        11.5860471457       -1.1445811285       -2.5054550032
  C        11.7227579698       -1.5234549703       -3.8505379949
  C        11.0174819395       -0.8312509520       -4.8505448558
  C        10.3650393180        0.3395822207       -4.4797456238
  C        10.2682690214        0.7088940962       -3.1439495372
  H         9.6332803278        1.6223910775       -2.7586224099
  H         9.8950583724        1.0052521866       -5.2214652110
  H        11.1823001784       -1.0720524970       -5.9155164219
  H        12.2614976761       -2.4519187293       -4.0558275667
  H        12.0821228731       -1.6517360021       -1.6861640745
  C         8.2676454389        8.1362910653        1.5644211289
  C         7.2033834655        8.7781741578        2.1780595559
  C         6.0804077583        9.2984118092        1.4346893371
  C         4.9489815137        9.8325537110        2.0832801540
  C         3.9085882246       10.4281016820        1.4362236927
  C         7.2859605719        9.1830855741        3.6324978075
  C         8.1718247477       10.1888392293        3.9632043287
  C         8.2897534034       10.6761432987        5.2776772394
  C         7.3026038221       10.3510673561        6.2363301241
  C         6.3196530781        9.4801556834        5.8378082402
  C         6.3667718218        8.7610060469        4.6297383570
  H         5.0409475458        9.7965224502        3.1924029036
  H         3.1189180389       10.9203043426        1.9577489605
  H         8.7899560113       10.5634819812        3.1514427636
  H         9.0563520824       11.4368566467        5.5081077197
  H         7.3361634298       10.8429728895        7.2377184878
  H         5.4534220049        9.2516915081        6.4640082374
  H         5.7171345405        7.8906118595        4.4843472332
  C         8.2816609803        8.0837658477        0.0730985441
  C         9.4056377957        7.4841104253       -0.6060026104
  C        10.5169069619        6.9625137587        0.1551781877
  C        10.5027595977        7.0868088785        1.6012010770
  C         9.3741418921        7.5520920110        2.2718264913
  C         6.1058988564        9.2432701575        0.0081798797
  C         7.2569854845        8.7043793006       -0.7141173620
  C         7.3676006285        9.1011228355       -2.1714800351
  C         8.3709777493        9.9876948417       -2.6926525435
  C         8.4292605592       10.3620931603       -4.0701666486
  C         7.4217423818        9.8653239947       -4.8849218993
  C         6.4156195397        9.0037507614       -4.3589939505
  C         6.3905038264        8.6335818754       -3.0574811186
  H         5.7955299226        7.8498009503       -2.6711450530
  H         5.6671565915        8.6377282927       -5.1015542492
  H         7.3469989895       10.2687421870       -5.8635255856
  H         9.2369156612       11.0459291767       -4.3974759024
  H         9.1194485069       10.3322599058       -1.9706224446
  C         4.9891920808        9.8910986145       -0.6704772459
  C         3.9281529281       10.4623976557        0.0289020744
  H         3.0915937461       10.9341785274       -0.4903903115
  H         4.9925609137        9.9982269641       -1.7512954531
  C         9.2144699762        7.1999656024        3.7178662738
  C         8.3925770734        6.1204191376        4.0178272119
  C         8.3418282189        5.5561918245        5.2694094787
  C         9.2204073804        6.0912729745        6.2972383340
  C         9.9664159181        7.2207394875        5.9937694099
  C         9.9940765023        7.7660885668        4.6952503354
  H        10.5657897970        8.6899137322        4.4253937113
  H        10.4267290597        7.7233229358        6.8561238463
  H         9.0568947365        5.6539516321        7.2803083942
  H         7.7895328104        4.6670583835        5.5368985270
  H         7.8431205632        5.7317073838        3.1737090438
  C        11.5740593319        6.4181960478        2.3704295155
  C        12.5467976885        5.7913059247        1.6565311033
  C        12.7157380424        5.8723019925        0.2474159087
  C        11.6863932688        6.3817498744       -0.4873151714
  H        11.8327165824        6.4049044876       -1.5572949381
  H        13.6835580251        5.5950304533       -0.1317205411
  H        13.3977878281        5.3865677824        2.2472810434
  H        11.6839417145        6.4745543751        3.4603186132
  C         9.3579958130        7.0600697039       -2.0611572138
  C         8.5625311940        5.9429001950       -2.4144018814
  C         8.5094620825        5.4827461933       -3.7540837462
  C         9.3776753296        6.0964701656       -4.7166073381
  C        10.1914245465        7.2022335293       -4.3625552859
  C        10.1675483846        7.6434291616       -3.0410709585
  H        10.8697510765        8.4709838587       -2.8310122913
  H        10.8906360205        7.6431625174       -5.1133647362
  H         9.1939873651        5.7540019389       -5.7148615435
  H         7.8503077602        4.7831315505       -4.1860621415
  H         8.0304822804        5.3851128173       -1.6131360190
