140

  C        15.6644294311       -1.1944324946        0.3875323807
  C        16.7038723170       -0.5009179656        1.0824106744
  C        17.7300022175        0.0559253575        0.3993412378
  C        18.7834933350        0.7109678390        1.0928199931
  C        19.8614244951        1.2424571723        0.4460301836
  C        16.6705263348       -0.1440314891        2.5780243815
  C        15.8113652747        0.8341434076        3.0714009293
  C        15.8595181477        1.2589513808        4.4331148083
  C        16.6962684436        0.6448436575        5.3366107587
  C        17.5897608358       -0.3690124504        4.8340684252
  C        17.5148577222       -0.7272179235        3.4858495222
  H        18.7954647515        0.5677610363        2.1672060079
  H        20.7115535662        1.6829827838        0.9513655624
  H        15.1590626281        1.3390172523        2.4182262343
  H        15.1690006616        2.0476124442        4.6862487478
  H        16.6817136026        0.8618428214        6.4081779037
  H        18.2256816866       -1.0199103954        5.3986510919
  H        18.2042035720       -1.4999843855        3.2235989151
  C        15.6048456790       -1.1893204053       -1.0642755156
  C        14.6770565754       -1.9520738695       -1.7186819559
  C        13.5591423289       -2.5154702984       -1.0499633040
  C        13.5143415739       -2.4223676017        0.3549030137
  C        14.6713220566       -1.8961375624        1.1030022832
  C        17.7282616627        0.0651849032       -1.0876446740
  C        16.6936324784       -0.5594489070       -1.7446525310
  C        16.6461809260       -0.3544826705       -3.1941425301
  C        15.8748742121        0.7647002763       -3.6155315366
  C        15.9932025290        1.1709031778       -4.8973755951
  C        16.7816912858        0.4374394721       -5.8436939532
  C        17.4321879936       -0.7150691233       -5.4461455353
  C        17.4182979479       -1.0934284368       -4.0661518621
  H        18.0836033836       -1.8988396759       -3.7371716448
  H        17.9844864811       -1.3460579868       -6.2041164916
  H        16.8176993938        0.8283248246       -6.8612005603
  H        15.4745406952        2.1060223500       -5.2164803272
  H        15.2303260705        1.3671051129       -2.8950122603
  C        18.8117489429        0.7494476429       -1.7208644317
  C        19.8003197200        1.2909690969       -0.9723257709
  H        20.6805743844        1.8556849344       -1.4942167284
  H        18.8401289144        0.8106436467       -2.8408394550
  C        14.6341174203       -2.0905060943        2.5615872048
  C        15.2244715972       -3.2503756985        3.0674084611
  C        15.3163490169       -3.5334545221        4.4479374649
  C        14.5198995293       -2.8056606029        5.2800640743
  C        13.7815635099       -1.7300432904        4.7781644300
  C        13.8823509214       -1.2822374381        3.4811773294
  H        13.3935568680       -0.3027591490        3.0986909548
  H        13.0713781815       -1.2937971735        5.4320186921
  H        14.5565391288       -3.0578686240        6.3118771544
  H        15.8720407727       -4.3629470607        4.8734312755
  H        15.8656703710       -3.8638868263        2.4607803334
  C        12.3958401962       -2.9890989308        1.0551161362
  C        11.3641306027       -3.5110024649        0.3405479507
  C        11.4669998247       -3.7400067317       -1.0437198945
  C        12.5292574401       -3.2320163700       -1.7470203845
  H        12.6232935006       -3.4704565521       -2.8217392082
  H        10.7023503782       -4.2342457127       -1.6078504957
  H        10.4716852623       -3.9004786679        0.8248434359
  H        12.4022569540       -2.9260648964        2.1459188964
  C        14.7212342405       -2.2432227958       -3.2190046445
  C        15.5567200956       -3.2776311340       -3.7219790455
  C        15.5147138627       -3.6833164495       -5.1384804560
  C        14.5039931641       -3.1379912459       -5.9822569709
  C        13.6010783252       -2.1777945945       -5.4156693555
  C        13.6466676130       -1.7515979107       -4.1056745313
  H        12.9252540818       -1.0017371837       -3.7945751311
  H        12.8366502184       -1.6709233196       -6.0804354957
  H        14.3066293269       -3.5396942052       -7.0172135126
  H        16.2953760418       -4.4003921013       -5.4497135957
  H        16.2539758963       -3.6938553553       -3.0707588667
  C        12.0526208071        5.8886117812        0.5409651206
  C        11.1391453796        6.7892556669        1.2227449297
  C        10.0214835193        7.2888834198        0.4528846949
  C         8.9536161756        8.0966392203        1.0137799559
  C         7.9190101482        8.5992303703        0.2627667617
  C        11.1900110725        7.1859664301        2.6382543913
  C        11.9343292109        8.3581819429        2.9624505975
  C        11.8978494436        8.7986225059        4.3028450034
  C        11.1259421463        8.1963932815        5.3135659213
  C        10.2276906856        7.1993007144        4.8897262368
  C        10.3427188446        6.6274396610        3.5813430175
  H         8.8778632076        8.2418528777        2.1322178411
  H         7.1417987221        9.1876493988        0.6861814468
  H        12.3370258468        8.9254667510        2.1276681300
  H        12.3374161584        9.8211116908        4.4545451072
  H        10.8641505798        8.5632968094        6.3920131548
  H         9.4795932731        6.8276804563        5.4840155597
  H         9.7288771139        5.7365960196        3.3918189086
  C        12.0047648175        5.8052383313       -0.9271465778
  C        13.0825120049        5.0403750898       -1.5586638086
  C        14.1511347226        4.5909448578       -0.7642008169
  C        14.1160885000        4.5611650312        0.6859786859
  C        13.0597639973        5.2050936327        1.3083531613
  C         9.9483656617        7.0698600243       -0.9801548296
  C        10.9650842184        6.4373479838       -1.7154513896
  C        11.0116986694        6.7015015604       -3.1736410077
  C        11.7502030457        7.8326516349       -3.5972808182
  C        11.7023699376        8.1364012862       -4.9470091950
  C        10.9382714117        7.4392148660       -5.8476670187
  C        10.0860772225        6.4352003900       -5.4302880544
  C        10.1386603246        6.0564876303       -4.1181623737
  H         9.4777677179        5.2654243412       -3.7870587340
  H         9.2707451358        6.2015042889       -6.0828159921
  H        10.9700456860        7.7998707675       -6.9252095095
  H        12.1350788707        9.0458458808       -5.3255001642
  H        12.3644204537        8.4213346244       -2.9673611533
  C         8.8817153537        7.6778053062       -1.7304412612
  C         7.8963805367        8.4472543786       -1.1605670796
  H         7.1981520813        8.9477937664       -1.8455524648
  H         8.7890815202        7.4032491321       -2.8159230675
  C        12.7922251740        4.9026424710        2.7362622889
  C        11.8367233286        3.9559536753        3.0754543953
  C        11.5044665471        3.7410206879        4.4003215912
  C        12.2843667928        4.2790013334        5.4360522743
  C        13.3831854414        5.0790750840        5.1377526204
  C        13.5486104960        5.4681068769        3.8124498313
  H        14.2994685368        6.2051206149        3.5251705296
  H        14.0242091713        5.4568686124        5.9788784258
  H        12.0094105856        4.0398250371        6.4548121030
  H        10.6834342613        3.0662817951        4.4894183834
  H        11.1810241254        3.4490395021        2.3694359498
  C        15.1943679798        3.9458540027        1.4045363347
  C        16.2901660630        3.4619145093        0.7562191814
  C        16.4173132394        3.5574082755       -0.6289053543
  C        15.3608790462        4.0275189517       -1.4024421355
  H        15.2912201867        3.9584556992       -2.4792081415
  H        17.2101031755        3.0770363902       -1.1627846520
  H        17.0283061263        2.9560706048        1.3801174091
  H        15.1519936393        3.9467300545        2.4614148289
  C        13.0999355406        4.6949971789       -3.0293434718
  C        12.2822257596        3.6693597225       -3.4509320647
  C        12.3576069824        3.2070941283       -4.7788768259
  C        13.0739846695        3.9557914735       -5.7508942289
  C        13.8226080432        5.0105479326       -5.3424203335
  C        13.7810577460        5.4146996703       -3.9774447022
  H        14.3929293184        6.2169675404       -3.5867987299
  H        14.3279040669        5.6232926999       -6.0927593800
  H        13.0197235087        3.6015688073       -6.7407332351
  H        11.6336145785        2.3753819293       -5.1024151385
  H        11.5533704995        3.1077116081       -2.8002622685
