140

  C        16.0684340372       -1.4772152045        0.1670699915
  C        17.0467732799       -0.7551411919        0.8714155694
  C        18.2108862827       -0.2530365652        0.2455495960
  C        19.3058204540        0.3023350735        0.9189792741
  C        20.2212768467        1.0953228864        0.2114726930
  C        17.0925549924       -0.4689150476        2.3453784823
  C        16.4143953978        0.7211283976        2.7620674595
  C        16.4813137295        1.1279368722        4.0798772723
  C        17.3230568425        0.4518374900        4.9439393832
  C        18.0740480517       -0.6127297462        4.5312719114
  C        17.9693031173       -1.0916765138        3.2312772181
  H        19.3364308816        0.3819207302        2.0101112847
  H        20.9011204135        1.6723119196        0.7191774206
  H        15.8272375771        1.2312120447        1.9853871607
  H        15.9963771291        2.0907053322        4.3465736994
  H        17.4044863977        0.6892552756        6.0591541300
  H        18.6708618928       -1.1935564248        5.2139137069
  H        18.3662543473       -2.0844730483        3.0263341132
  C        16.0966839450       -1.5828707609       -1.2943897258
  C        15.0511490494       -2.2821905320       -2.0418642165
  C        14.0368472645       -2.8991393008       -1.3284335292
  C        14.0340157787       -2.8625022195        0.1502518267
  C        15.0321823999       -2.1902020278        0.8626541307
  C        18.2100189389       -0.2778411207       -1.1949464284
  C        17.1431135048       -0.8543639298       -1.9446508175
  C        17.1102468916       -0.5851335099       -3.3597425438
  C        16.4226203568        0.5512499171       -3.8839982846
  C        16.5291670891        0.8944961013       -5.2507784884
  C        17.3043667577        0.1214544327       -6.1234711813
  C        17.8463921301       -1.0871543255       -5.6114185713
  C        17.8307163827       -1.4127058818       -4.2411917789
  H        18.2978839390       -2.3852638904       -3.8856865820
  H        18.3419053531       -1.7472049960       -6.3237260852
  H        17.5480252685        0.4515012749       -7.1461218084
  H        15.9974922312        1.8071040875       -5.5956969335
  H        15.8976451476        1.2249134735       -3.1814695129
  C        19.3728389694        0.3048304457       -1.8636263476
  C        20.2874484684        1.0705485338       -1.2205153560
  H        21.0009416430        1.6417810776       -1.7820093832
  H        19.4467725363        0.1429661345       -2.9222224388
  C        15.0584515110       -2.4150978554        2.3504395370
  C        15.6363685495       -3.5957262764        2.8628370291
  C        15.5970239298       -3.8786152499        4.2093238708
  C        14.9778682573       -3.0165519949        5.0902017222
  C        14.2893355167       -1.9124118476        4.5974799958
  C        14.2643124354       -1.6528144472        3.1903931689
  H        13.9517254660       -0.7148871144        2.8302620616
  H        13.7853328202       -1.2287808202        5.3785020625
  H        15.0213493583       -3.1786872582        6.1629116872
  H        16.2086407972       -4.7137448149        4.5592622057
  H        16.0915860237       -4.4503410261        2.2511464100
  C        12.8532389661       -3.4287093134        0.8478308493
  C        11.8557386275       -4.0605404290        0.1238274107
  C        11.8430558339       -4.0129118157       -1.3240212328
  C        12.8763473212       -3.5097009190       -2.0516042579
  H        12.8204479898       -3.5463738395       -3.1573634512
  H        10.9805906121       -4.3911455267       -1.8675117356
  H        11.0468865471       -4.5663241848        0.6072299349
  H        12.6604937694       -3.4018867818        1.9239406239
  C        15.0191360146       -2.4377925173       -3.5514406907
  C        15.6903168786       -3.5445261602       -4.0196027357
  C        15.4898449373       -3.9630569883       -5.3787580640
  C        14.5321560604       -3.3248221290       -6.1802640802
  C        13.9621332970       -2.1129655966       -5.6901258558
  C        14.2411290164       -1.6311321210       -4.4028279394
  H        13.8301768220       -0.7114219428       -4.0177041097
  H        13.2632076220       -1.5454368020       -6.4091984035
  H        14.3058303492       -3.6178806769       -7.2055837249
  H        16.0327559282       -4.8541079529       -5.7655128442
  H        16.3693770760       -4.1513409979       -3.3849163290
  C        12.4315343360        5.7394406087        0.2534669431
  C        11.3713949720        6.4832508357        0.8703331203
  C        10.3767092805        6.9852052327        0.0730896719
  C         9.3688807145        7.8531900795        0.6466473619
  C         8.3760846241        8.4849385620       -0.0794627907
  C        11.3850144828        6.8826218069        2.3295338955
  C        12.1174088936        7.9967007261        2.6664839881
  C        12.2471313437        8.5677558618        3.9319002700
  C        11.4487155768        7.9832254457        4.9651148871
  C        10.6206991987        6.9290388676        4.5997321861
  C        10.5763149454        6.3372833288        3.3367601782
  H         9.3519270475        7.9939763653        1.7088086961
  H         7.6298392009        9.0505496662        0.4874630462
  H        12.6089760237        8.5071910607        1.8541813194
  H        12.7335948004        9.5650058272        4.0125898857
  H        11.4780946621        8.3786314750        5.9356654799
  H         9.9174302969        6.6106546256        5.3901381600
  H         9.8600177501        5.4675417438        3.1350560354
  C        12.4663675600        5.7421569301       -1.2315627615
  C        13.5251667639        4.9838707654       -1.9237711210
  C        14.5413156405        4.3398233379       -1.1764224561
  C        14.5489948443        4.3879718409        0.2268317489
  C        13.5224612994        5.0127608338        0.9528384150
  C        10.3577438488        6.9405125115       -1.3972540328
  C        11.4248399862        6.3134674860       -2.0198413024
  C        11.4165861659        6.5621678784       -3.4825844875
  C        12.1968497002        7.6513748877       -3.8994581571
  C        12.1801278962        8.1643505207       -5.2011360348
  C        11.2584666700        7.5645814898       -6.1085826516
  C        10.5096742994        6.4571870956       -5.6821509244
  C        10.5909581193        5.9570982854       -4.3989536268
  H         9.9586030198        5.0856010334       -4.1098234395
  H         9.8404714768        6.0085693328       -6.3905093905
  H        11.1968246357        7.8771643965       -7.2018166519
  H        12.8339656318        8.9650902224       -5.4724611583
  H        12.9686877048        8.1407845771       -3.2204593663
  C         9.1803976401        7.4264236499       -2.0621828281
  C         8.2070435073        8.2352168695       -1.4703742543
  H         7.2549842583        8.5134119711       -1.9633859496
  H         9.1409567946        7.0861573501       -3.0581277217
  C        13.6086203346        4.7458461340        2.4366950840
  C        13.0511190407        3.5052454148        2.8203426312
  C        13.1504132872        2.9661982009        4.0963775596
  C        13.8997002235        3.7196233930        5.0779643602
  C        14.5706807232        4.8991453763        4.6722108101
  C        14.3773961758        5.4518638617        3.3937736050
  H        14.7450576128        6.4560204030        3.2419193420
  H        15.1672315287        5.4895646709        5.3745524029
  H        13.9753205812        3.3955780252        6.1503601549
  H        12.5419601458        2.0264679141        4.2582369629
  H        12.5344518879        2.9205083877        2.0245036263
  C        15.6924537825        3.6334978864        0.8260252670
  C        16.6883665118        2.9533457038        0.1361477069
  C        16.6072521248        3.0306761385       -1.3472935279
  C        15.6209402599        3.7074213800       -1.9118182604
  H        15.5303051944        3.8108755571       -2.9988755194
  H        17.4452929490        2.5125161896       -1.8836861116
  H        17.4250483547        2.4944069774        0.7505197689
  H        15.9657289111        3.7325893817        1.8803453712
  C        13.5269894754        4.6349840531       -3.3615134149
  C        12.9792546445        3.3842918109       -3.6509095742
  C        13.1988460164        2.8364958311       -4.9197717232
  C        14.0104013274        3.5708654729       -5.8716282460
  C        14.5034051463        4.8216512035       -5.4990968389
  C        14.2642554572        5.3463462563       -4.2297655543
  H        14.6013026974        6.4098436467       -4.0120267147
  H        15.0368259660        5.3545328398       -6.2738995741
  H        14.1453739339        3.1679280421       -6.8705825546
  H        12.8024836833        1.9204886322       -5.2082954180
  H        12.3972575991        2.7258869383       -2.9627830526
