140

  C        15.9506610309       -1.3621591300        0.1821251981
  C        17.0363463832       -0.7364977645        0.9027257772
  C        18.1765648487       -0.3527993149        0.1928875329
  C        19.1931086755        0.3898056306        0.8635925606
  C        20.2036317877        1.0301626866        0.2213379323
  C        16.9919260417       -0.3956914261        2.3475555735
  C        16.4112178601        0.7297763683        2.9328201452
  C        16.4631166058        0.9554684058        4.3577349962
  C        17.1346686589       -0.0009833209        5.1696321905
  C        17.7751276198       -1.0888452205        4.5335979566
  C        17.7144878339       -1.2759339756        3.1692905576
  H        19.1852741124        0.4978506626        1.9435309912
  H        21.0563324678        1.5560464281        0.8564448616
  H        15.9037964666        1.3801328252        2.2248665528
  H        15.8713660548        1.7685021687        4.7395091194
  H        17.2248389988        0.0617018838        6.2095342554
  H        18.4478146511       -1.6646122451        5.1337921799
  H        18.2880362374       -2.1183220457        2.7285154498
  C        15.9739202540       -1.3967618391       -1.3249393081
  C        14.9764508925       -2.1473255060       -2.0554254980
  C        13.9297002147       -2.7347870646       -1.3241068956
  C        13.8690440567       -2.6713831735        0.1068395241
  C        14.8591675994       -1.9836191971        0.8754720510
  C        18.1527407538       -0.2554243855       -1.2214305517
  C        17.0620707002       -0.6706667577       -2.0226683653
  C        16.8750274579       -0.2003757922       -3.4563097498
  C        16.0109237149        0.8220137523       -3.7797495842
  C        15.8207577193        1.3199963914       -5.0472389393
  C        16.5709526430        0.8243990493       -6.0920382353
  C        17.4626046068       -0.2238389060       -5.8277902838
  C        17.5291360907       -0.7605524250       -4.5429352439
  H        18.2124657086       -1.5456903494       -4.3986108571
  H        18.0553544689       -0.6254428478       -6.6491755577
  H        16.5180762044        1.2670219954       -7.0869021966
  H        15.0804167625        2.0937645066       -5.2583797301
  H        15.3987850457        1.2672491546       -2.9665647881
  C        19.2416908880        0.4375561130       -1.8537762306
  C        20.2010981478        1.0606146116       -1.1786584503
  H        20.9829969359        1.6418682325       -1.7795942110
  H        19.2920703535        0.3726438431       -2.9617266697
  C        15.0257816697       -2.4922066280        2.2481660497
  C        15.8077761824       -3.6758636059        2.3807956621
  C        16.0350116968       -4.2494084957        3.5972325438
  C        15.2821998807       -3.8094865678        4.7491149332
  C        14.5156268301       -2.6156134458        4.6512615212
  C        14.3185644914       -1.9698790990        3.3754304573
  H        13.6081731978       -1.1783468575        3.1811032253
  H        13.9408791719       -2.2803114429        5.4791352946
  H        15.4125381903       -4.3174251831        5.6975403133
  H        16.7661662763       -5.0578000594        3.6390443302
  H        16.1956708335       -4.2012627631        1.5712453001
  C        12.7982450243       -3.3793945268        0.7191532509
  C        11.7747878461       -4.0307640824        0.0271295620
  C        11.9374017846       -4.2116484620       -1.3588649796
  C        13.0079764040       -3.6043443752       -1.9794216142
  H        13.0005928326       -3.6455474920       -3.0977110937
  H        11.2927479580       -4.8229951090       -1.9784489317
  H        10.8808196109       -4.3264030007        0.6103717435
  H        12.6832996361       -3.2253669050        1.8085177949
  C        15.2067629444       -2.4527510482       -3.5504754718
  C        16.1447189649       -3.3404449600       -4.0088634723
  C        16.1354823108       -3.7526916051       -5.3827072181
  C        15.1679833614       -3.2585303284       -6.2163145714
  C        14.2434161165       -2.3344568541       -5.7994027694
  C        14.2941186097       -1.8958172650       -4.4755155301
  H        13.5808739769       -1.1471580365       -4.2249347027
  H        13.4877654494       -1.9681190491       -6.5239468286
  H        15.0904586756       -3.5657346634       -7.2624149782
  H        16.8219746598       -4.4907782190       -5.7938938504
  H        16.9611117307       -3.7990699289       -3.4436488923
  C        12.5893952512        5.8905645885        0.0516048892
  C        11.5496115788        6.6243474422        0.6924666017
  C        10.4826106789        7.1604251437       -0.0587608438
  C         9.3448198991        7.7689570093        0.6761151572
  C         8.3078447380        8.2783182381       -0.0211360281
  C        11.4516975299        6.9126729195        2.1719209039
  C        12.2113880683        8.0068469839        2.6720178879
  C        12.2517562841        8.2245645067        4.0584345847
  C        11.4378562605        7.5792308958        4.9953111044
  C        10.6270867907        6.5368231234        4.4924599671
  C        10.6295631845        6.2498929863        3.1030119362
  H         9.2806977980        7.8542175980        1.7971146974
  H         7.5115373684        8.6808100112        0.5729212069
  H        12.8781026513        8.6449775886        2.0262242252
  H        12.9027580155        8.9444106422        4.4775119564
  H        11.4845841459        7.8957498265        6.0780197154
  H        10.0270686814        5.9123972062        5.1275554618
  H         9.9927001846        5.4466033469        2.8889239824
  C        12.6225857748        5.8460832245       -1.3920407707
  C        13.6844943912        5.1696069750       -2.0302694561
  C        14.7613990641        4.5540864547       -1.3630983214
  C        14.7240524784        4.5408961231        0.1208429999
  C        13.6425357009        5.2274505633        0.7336980316
  C        10.4054284928        7.0279205399       -1.4543178675
  C        11.5156722856        6.4131225717       -2.1101093256
  C        11.5615961815        6.6641229710       -3.5756045928
  C        12.3939433110        7.7651700362       -4.0168808245
  C        12.1862864147        8.2873499522       -5.3087960284
  C        11.1571069841        7.8804755642       -6.1634706155
  C        10.3714936518        6.7700840216       -5.8075377644
  C        10.5676803128        6.1926450386       -4.5402032529
  H         9.9308291083        5.3293466791       -4.2411303225
  H         9.5035440518        6.4440930235       -6.4403244667
  H        10.8462708621        8.5081797971       -7.0072656660
  H        12.8026455063        9.1803719478       -5.5315140242
  H        13.1263590398        8.1684161464       -3.3700559524
  C         9.3001730654        7.6563633998       -2.1710771843
  C         8.3140746250        8.2988605356       -1.4508893858
  H         7.5787119095        8.8611412875       -2.0202133598
  H         9.3102675845        7.6651431821       -3.2437054102
  C        13.4622772035        4.8570431784        2.2201767478
  C        12.6557445519        3.6660546048        2.5312388482
  C        12.6015449049        3.2232081881        3.8253854365
  C        13.3650996714        3.7914654964        4.8241298958
  C        14.2309035059        4.8418426731        4.4964802500
  C        14.1994701054        5.4028922860        3.2406539097
  H        14.9287472195        6.2226919038        3.1444841527
  H        14.9470644175        5.3012698693        5.1309966856
  H        13.3804243156        3.3572263718        5.8394403300
  H        11.9234949831        2.4642200668        4.1202354535
  H        12.2292414982        3.2095894493        1.6651449941
  C        15.7852015841        3.7876113192        0.7960365205
  C        16.7736488029        3.1006892326        0.1006545926
  C        16.7380516446        3.1035096691       -1.3028625553
  C        15.8180464642        3.8127763465       -2.0145425520
  H        15.8639316576        3.8523418052       -3.1542155917
  H        17.6043985871        2.6206960680       -1.8016993420
  H        17.5072750415        2.4413920245        0.6563077949
  H        15.9842483200        3.8445068609        1.8558638616
  C        13.6857992859        4.8214943778       -3.5259992264
  C        13.0079811762        3.6389662097       -3.8283472364
  C        12.7415550109        3.2440422452       -5.1597052271
  C        13.2299147988        4.0126895984       -6.1807303756
  C        14.1295349898        5.0873300159       -5.9103590293
  C        14.2798595585        5.5322834653       -4.5663198779
  H        15.0066710884        6.2615566662       -4.4283037952
  H        14.6008976461        5.6245576268       -6.7383139039
  H        12.9604314795        3.8608167193       -7.2195509078
  H        12.0500439132        2.3593538628       -5.3735872138
  H        12.5122424561        3.0585535293       -3.0454942008
