140

  C        14.7063885771       -0.3103623590        0.7863283020
  C        15.7700614296        0.4244564696        1.4070212071
  C        16.8301280571        0.9860376732        0.6219094805
  C        17.9982506160        1.7305287477        1.2409148582
  C        19.0185273788        2.2292346467        0.4665379997
  C        15.8089962503        0.8585488077        2.8452124271
  C        14.9493640965        1.8736522742        3.4550809819
  C        15.1528786733        2.2638681782        4.7691361416
  C        16.1145872849        1.7218229405        5.6356966908
  C        16.9703148780        0.7351264356        5.0880013076
  C        16.7533556889        0.2762929686        3.7621173888
  H        18.0742129775        1.8640112224        2.2979150342
  H        19.7820386402        2.9514106769        0.8938709426
  H        14.1873205630        2.3959888964        2.7997334302
  H        14.6602686401        3.1727202393        5.0688109395
  H        16.2167389812        2.0350074420        6.7017050801
  H        17.9036141892        0.3814088041        5.6500939857
  H        17.3590496257       -0.4989333913        3.4475310016
  C        14.6963684706       -0.4078592872       -0.6894133003
  C        13.7131958424       -1.2421152107       -1.3452857391
  C        12.6791454300       -1.8235027787       -0.5762863173
  C        12.6657398387       -1.7433002978        0.8927669601
  C        13.7710449469       -1.0612218711        1.5006117983
  C        16.7393629264        0.9485516656       -0.8298432146
  C        15.6550380850        0.2963459808       -1.5032463711
  C        15.5088886992        0.7494040149       -2.9893290752
  C        14.5896965759        1.8063007649       -3.2458464961
  C        14.3895598528        2.3062970685       -4.5428174582
  C        15.2366157662        1.8715547598       -5.5818973882
  C        16.1429902097        0.7991684240       -5.3741016465
  C        16.2622464358        0.2662870878       -4.0636166068
  H        16.8732720936       -0.5880324495       -3.8607463152
  H        16.7609523059        0.4112770554       -6.1822988075
  H        15.2120468321        2.4064441876       -6.5159648412
  H        13.5623534076        2.9688505312       -4.6975323479
  H        14.0391680090        2.2420392970       -2.3951259151
  C        17.8923031335        1.3481054476       -1.5624694894
  C        19.0206462335        1.8972632335       -0.9491624193
  H        19.9569649873        1.9243186695       -1.5018035463
  H        17.9317742125        1.1960720393       -2.6656125695
  C        13.8990404146       -1.2876601811        3.0573350330
  C        14.7858145853       -2.4128597157        3.3995367289
  C        14.9047204804       -2.6965729452        4.8095735365
  C        14.0810794402       -2.1011362888        5.7416486164
  C        13.1781106444       -1.0713341614        5.3698474126
  C        13.1868830641       -0.6887037675        3.9975827189
  H        12.4915117013        0.1062845485        3.7068447094
  H        12.3722830912       -0.8115173467        6.0607271233
  H        14.1810671887       -2.3855785344        6.8236610685
  H        15.6007513751       -3.4602952708        5.1448244609
  H        15.3754155099       -2.8129377068        2.6056883630
  C        11.5573028519       -2.2750780082        1.5973163337
  C        10.4718665778       -2.7915151792        0.9590190078
  C        10.4548836162       -2.9352547144       -0.4477171101
  C        11.5864686974       -2.6134872009       -1.1874666205
  H        11.7144669806       -2.8507484662       -2.2233466819
  H         9.5570762887       -3.3329804699       -0.9578803700
  H         9.6145019724       -3.1346934664        1.5570524818
  H        11.6040480748       -2.2041767692        2.6893600054
  C        13.7376575455       -1.6372841970       -2.8114018176
  C        14.6560884613       -2.5177415449       -3.3824771727
  C        14.5808020593       -2.7433800218       -4.8134176905
  C        13.5477550481       -2.2361611473       -5.5338424317
  C        12.4493277615       -1.4978035976       -4.8875889466
  C        12.6218939595       -1.1232863889       -3.5681847630
  H        12.0772635007       -0.4012558696       -3.0527858488
  H        11.6621165845       -1.0608782271       -5.5160956929
  H        13.4726438942       -2.3668255938       -6.6230284619
  H        15.4502867580       -3.2457190183       -5.2594220262
  H        15.4653488252       -2.9009376194       -2.7523207426
  C        11.0841765821        6.7320525715        0.6743449996
  C        10.2547597779        7.5212113797        1.5304732069
  C         9.1816964643        8.2138780089        0.8858506047
  C         8.3359498807        9.1047822558        1.6349286611
  C         7.2244155962        9.6914313578        1.0497321555
  C        10.4481248041        7.9324812943        2.9637507648
  C        11.3103128152        9.1009342166        3.1371681683
  C        11.3103933720        9.7150629955        4.3476211953
  C        10.4478154637        9.3383612175        5.4451683742
  C         9.6307821767        8.2433211120        5.2627394233
  C         9.5816182099        7.5529563219        4.0174200235
  H         8.6758999732        9.2792617597        2.7146144824
  H         6.6727779164       10.4457886755        1.6687130829
  H        11.8881011514        9.4584438051        2.2859218110
  H        11.8672369456       10.6861221896        4.5112627361
  H        10.4625916073        9.8767673688        6.3439881799
  H         9.0176274184        7.9644426073        6.0736388146
  H         8.9517178834        6.6813969477        3.7665337713
  C        11.0860807314        6.8300461015       -0.7571429257
  C        12.0616629601        6.0358683777       -1.5166539354
  C        13.2333267756        5.5660621597       -0.8220029673
  C        13.2938665128        5.5824641053        0.6483085672
  C        12.1893949208        6.1068663585        1.3095909670
  C         8.9863068749        8.1202329450       -0.5625989082
  C        10.0460339252        7.5503102265       -1.4016037591
  C        10.1680582950        8.0267310297       -2.8494956336
  C        10.9579413025        9.0936525435       -3.2551816161
  C        10.9506905343        9.4878567889       -4.5689608366
  C        10.1243337775        8.8485544567       -5.4896918735
  C         9.0824769179        7.9726066453       -5.1029766073
  C         9.1667066063        7.5143128254       -3.7278921618
  H         8.5540001383        6.6809124622       -3.4678886658
  H         8.3632010106        7.4671375416       -5.7905794803
  H        10.2565568461        9.1524933943       -6.5580790594
  H        11.6133276352       10.3131436669       -4.8779069319
  H        11.7007994672        9.4986515206       -2.5748551917
  C         7.7456544727        8.6785586508       -1.0539180293
  C         6.8718118467        9.4580194911       -0.2576995645
  H         5.8537622100        9.7144277997       -0.5108951304
  H         7.5212861923        8.6347206504       -2.1422564423
  C        12.1639730085        5.7384074622        2.7528584729
  C        11.3271717932        4.7970038128        3.3229517407
  C        11.3779333589        4.5486127193        4.7090427589
  C        12.1882939824        5.3871787671        5.5416494974
  C        13.0608121540        6.3474913535        4.9648724207
  C        13.0064898611        6.4720526559        3.5744822325
  H        13.6576114269        7.2016233811        3.1285014547
  H        13.6051122748        6.9165241254        5.6896936245
  H        12.0717643172        5.2059061641        6.6036282425
  H        10.7347249878        3.8243699735        5.1847546056
  H        10.4497949859        4.3018979602        2.7951067724
  C        14.4501843085        5.0891673740        1.2685708225
  C        15.3987810533        4.4038794596        0.5467882855
  C        15.3623666393        4.2419166000       -0.8879169805
  C        14.2966531056        4.8752375813       -1.5181806454
  H        14.2366907800        4.9025171910       -2.6368001449
  H        16.1546301757        3.7009172702       -1.5133273538
  H        16.2084812843        4.0389481158        1.1596965554
  H        14.6339341557        5.2066669970        2.3648608627
  C        11.8541696570        5.7544265067       -2.9458701822
  C        11.0626744023        4.7563193849       -3.2489401067
  C        10.7817339811        4.3950131782       -4.5715795139
  C        11.5362938740        4.9353534793       -5.6045989421
  C        12.5333921586        5.8625612529       -5.2435561550
  C        12.5608492527        6.4280368402       -3.9905012395
  H        13.1919304960        7.2110657945       -3.7101196910
  H        13.2504612358        6.2828233974       -5.9560249454
  H        11.3799476753        4.6513649016       -6.5961367749
  H        10.2278689011        3.4972616565       -4.8548763843
  H        10.5895147125        4.2151280572       -2.4678857358
