140

  C         5.3035475832       -0.2017704634       16.4549533084
  C         6.2986999713        0.6434924988       17.0723672255
  C         7.3292756753        1.2164920304       16.3147050911
  C         8.3666140164        1.9675030819       16.9298185815
  C         9.4035689000        2.5263183882       16.2397499045
  C         6.2336865930        1.0900024979       18.5649746856
  C         5.4235200419        2.1565541217       18.9290176633
  C         5.4203440997        2.4882336788       20.3057474871
  C         6.3766120637        1.9604302116       21.2023533049
  C         7.3097966422        0.9430608560       20.7363405115
  C         7.1868808922        0.4843793729       19.4460210551
  H         8.3051483302        2.1806190439       18.0271082534
  H        10.1857609900        3.0730941481       16.7663622383
  H         4.6911927981        2.5283350680       18.2463279440
  H         4.6676412303        3.1864186825       20.6143007259
  H         6.5122277210        2.2180819540       22.2455657864
  H         8.0354223820        0.5275270967       21.4368785161
  H         7.7042561335       -0.3480440614       19.0218715294
  C         5.1744255549       -0.1714037728       14.9886685230
  C         4.1032729731       -0.8612445986       14.3553936562
  C         3.0730933733       -1.4794407576       15.0798253662
  C         3.1649515340       -1.6053436567       16.5506349328
  C         4.2864099670       -1.0396113004       17.1943008637
  C         7.2568667132        1.1911614503       14.8588379268
  C         6.1342543339        0.5875128972       14.2070859403
  C         5.9249140588        1.0062776961       12.8321099532
  C         5.0336492788        2.0477083283       12.4951903306
  C         4.8917523287        2.4512147937       11.1717830223
  C         5.7054131443        1.9313761900       10.1492721566
  C         6.6846999760        1.0282208806       10.5587282278
  C         6.8028167784        0.5506656604       11.8534224205
  H         7.5685012544       -0.1698857514       12.0801037923
  H         7.3915284598        0.6759342889        9.8626080114
  H         5.6563325767        2.2545612351        9.0665380555
  H         4.0661493672        3.1595123651       10.9655318263
  H         4.3830983898        2.4946917463       13.2970171598
  C         8.3141572847        1.8882250410       14.1290220831
  C         9.3773541867        2.4156334437       14.8149454993
  H        10.1873390045        2.8779734276       14.2505381468
  H         8.2236318281        1.9680817970       13.0600194179
  C         4.3876294506       -1.2936684339       18.6444996495
  C         5.3940253272       -2.1040887936       19.0891996553
  C         5.5782302935       -2.5014158680       20.4275770777
  C         4.5720554858       -2.1430273287       21.3504123079
  C         3.5474303076       -1.2705536758       20.9196215381
  C         3.4614531051       -0.8894222732       19.5807746873
  H         2.6889431208       -0.2220943320       19.2535576645
  H         2.8210458785       -0.8330489844       21.5844716249
  H         4.5936154386       -2.5447773470       22.3539360929
  H         6.2442032732       -3.2979080179       20.7522135667
  H         6.1518407253       -2.3812811789       18.3365646739
  C         2.1996633807       -2.3797963600       17.2300068740
  C         1.1279828670       -2.9937067398       16.5991320677
  C         0.9246740017       -2.7918387227       15.1845989202
  C         1.8630409257       -2.0709956937       14.4864789776
  H         1.6414691104       -1.8344680242       13.4361245980
  H         0.0573308273       -3.2716903306       14.6874602085
  H         0.5288011514       -3.7122536562       17.1701695056
  H         2.2930961321       -2.4440445671       18.3467736318
  C         4.0929379177       -1.1149536096       12.8620350031
  C         4.9618966724       -2.1770197825       12.4186929504
  C         4.8086556361       -2.6574436145       11.1297124681
  C         3.7377847349       -2.3074333193       10.2868380681
  C         3.0144653977       -1.1154546441       10.6853550621
  C         3.1128658081       -0.6243695633       11.9874632481
  H         2.4193042103        0.1431488957       12.3701130682
  H         2.2254143440       -0.7801133727       10.0651066656
  H         3.6582073825       -2.6423463227        9.2227291779
  H         5.4255032230       -3.4628941000       10.8645038216
  H         5.6467228875       -2.7137798475       13.1295430385
  C         1.4308115340        7.0719653225       16.1413106243
  C         0.4270760940        7.7915155338       16.8342575985
  C        -0.7263534973        8.2995829171       16.0917724876
  C        -1.8098974460        9.0207322728       16.7141939849
  C        -2.8499768114        9.6315645659       15.9794784810
  C         0.4717320768        8.1306673076       18.2804866797
  C         1.4768505882        8.9712646734       18.6925626305
  C         1.6190969925        9.3121040131       20.0432938283
  C         0.6065947568        8.8730905705       20.9644256857
  C        -0.4577885917        8.0974672241       20.5422053371
  C        -0.4155080525        7.6032647717       19.2125386160
  H        -1.7537431149        9.0406686515       17.8162586220
  H        -3.6249296997       10.1218674138       16.5903502607
  H         2.1710940457        9.3064340064       17.9399820465
  H         2.3879003435       10.0312222858       20.3589025930
  H         0.7014624174        9.2605696591       21.9432325214
  H        -1.2813046304        7.6038028670       21.1587180900
  H        -1.2259577874        7.0310218219       18.7924556119
  C         1.4437257542        7.0988648013       14.6594063559
  C         2.4814057899        6.4322905793       13.9326367385
  C         3.6572506365        5.8894407319       14.6028409094
  C         3.6123213332        5.8975690083       16.0502998051
  C         2.4873532926        6.3262582960       16.8182304475
  C        -0.7238495074        8.2864480117       14.6775687515
  C         0.4168794809        7.8336738506       13.9524521916
  C         0.5770117844        8.1271698901       12.4509603544
  C         1.3516189573        9.2575750412       12.0591791344
  C         1.5626496005        9.6475245307       10.7437890553
  C         0.9428336209        8.8498819531        9.6976723985
  C         0.0840204737        7.7464942436       10.0998725870
  C        -0.0600523877        7.3593188577       11.4402031591
  H        -0.6090734922        6.4693281271       11.6814295315
  H        -0.4606751426        7.2016469529        9.3232541232
  H         0.9245314888        9.2337570388        8.7024880717
  H         2.1148059591       10.6166433838       10.4826830998
  H         1.7641464272        9.8790025915       12.8823671411
  C        -1.7952750299        8.7976350730       13.9312426844
  C        -2.7997608443        9.4838159657       14.5459339633
  H        -3.6082115115        9.8761482042       14.0076950504
  H        -1.7920923987        8.6498687482       12.8028102890
  C         2.4208214690        5.9716874111       18.2229328567
  C         1.6423595199        4.8611643358       18.6221412537
  C         1.7742846422        4.4334546459       19.9842744076
  C         2.6107633898        5.1137946471       20.8075128387
  C         3.4019561629        6.1923880736       20.3964744735
  C         3.3500228104        6.6012637082       19.0664909381
  H         4.0191716550        7.3437759642       18.6703577161
  H         4.0896004203        6.6686881165       21.1830218969
  H         2.6782149039        4.8097205397       21.8338954700
  H         1.1757844873        3.6444181466       20.4801843540
  H         0.9128767738        4.4546327589       17.9726937331
  C         4.6962466169        5.1332324001       16.6777724796
  C         5.7803869615        4.6703753186       16.0012392839
  C         5.7853695957        4.6807666131       14.5927176013
  C         4.6979609527        5.1585088768       13.8900684971
  H         4.8206569669        5.1089148634       12.8114073449
  H         6.6076279535        4.1262357600       14.0284222269
  H         6.5757773100        4.1468857176       16.5587896039
  H         4.7239945810        4.9458480787       17.6828222875
  C         2.4745029908        6.1014198901       12.4210925971
  C         1.7564834192        5.0005541248       11.9646084321
  C         1.8792465544        4.5562886535       10.6433413559
  C         2.6897407210        5.2914972396        9.7579934728
  C         3.3790309838        6.4051762918       10.1848828448
  C         3.3822397836        6.7561355785       11.5702716998
  H         4.1067581927        7.4178012743       12.0061360807
  H         3.8439842996        7.0548247976        9.4181873588
  H         2.7433511904        4.9943272628        8.6991445226
  H         1.2603313850        3.7126163156       10.3397605129
  H         0.9473161295        4.5591149748       12.5659277467
