140

  C         3.3020485348        0.0829179276       14.6339694540
  C         4.4158178899        0.6229512506       15.3248410758
  C         5.4917494014        1.2139037602       14.6585613044
  C         6.5376639500        1.8701252611       15.4281837623
  C         7.6456284739        2.4978542905       14.7880068256
  C         4.3867074449        0.9265286354       16.8482699190
  C         3.6175208847        2.0013160608       17.3863712551
  C         3.6852913963        2.3667834038       18.7273456543
  C         4.6098281560        1.6804686096       19.5394714339
  C         5.3078756482        0.5583829663       19.0593199788
  C         5.2349115274        0.1450612238       17.7164138762
  H         6.4981308060        1.8106758449       16.4676725011
  H         8.4209092134        2.8427533686       15.4908092913
  H         2.7602967080        2.4346333776       16.8161135217
  H         3.0651799917        3.1671134949       19.0701617055
  H         4.7065859129        1.9348773491       20.6281073107
  H         5.9192330892       -0.0626171858       19.7221065071
  H         5.8508224775       -0.6536673319       17.3281471383
  C         3.3402513131        0.1499746753       13.1635906783
  C         2.2824007139       -0.4477619831       12.3964447837
  C         1.1304838070       -0.8512666665       13.0998023441
  C         1.1230809061       -0.9646105656       14.5536969219
  C         2.2261810009       -0.5072902105       15.3197027536
  C         5.5993863975        1.3413517943       13.1859287043
  C         4.4841305782        0.7799596070       12.5241799947
  C         4.3365509447        1.1747404328       11.0847249209
  C         3.4917018046        2.2907886913       10.9727109280
  C         3.3219637508        3.0438148208        9.7818627986
  C         4.0147905977        2.5961171657        8.6530433708
  C         4.7772340863        1.4438827279        8.7948319595
  C         4.9449850164        0.7135879523        9.9604160514
  H         5.4935629282       -0.1982665695       10.0783891183
  H         5.3435754727        1.0877621637        7.9323529302
  H         3.9115025625        3.0543700274        7.7074218665
  H         2.6401583167        3.8972026877        9.7121775334
  H         2.9462567104        2.5451230235       11.8988309141
  C         6.5650867776        2.1594401507       12.5738284764
  C         7.5621364343        2.7184679174       13.3851214547
  H         8.3061602453        3.3527659787       12.8985162844
  H         6.5277758157        2.2408062526       11.4859656487
  C         2.2105032506       -0.9831857640       16.7070101077
  C         3.0076506406       -2.0857424523       17.0859924197
  C         2.9179980546       -2.6339746511       18.4088694317
  C         2.1919131997       -1.9269781886       19.3813018978
  C         1.4174496055       -0.8450472188       19.0081688594
  C         1.3671083600       -0.3771750886       17.7139978501
  H         0.6922900043        0.3722332253       17.3041851950
  H         0.8148411119       -0.2908087700       19.7979925993
  H         2.2380501301       -2.3943642545       20.3456625100
  H         3.2845904170       -3.6334359636       18.6047114436
  H         3.4506127938       -2.7193187888       16.3277046665
  C        -0.0191209694       -1.6508725731       15.1158391367
  C        -1.1324370386       -2.1504852267       14.4678260066
  C        -1.0382772390       -2.0837510704       13.0245873927
  C        -0.0194595855       -1.4492986392       12.4447337697
  H         0.0249483364       -1.5821122964       11.4043180807
  H        -1.7528906467       -2.6299056663       12.3568351201
  H        -2.0637951958       -2.5048949517       14.9231405487
  H        -0.0192070206       -1.7993123721       16.2246398959
  C         2.3991027598       -0.8257553606       10.9614851022
  C         3.3324734667       -1.7857118019       10.3828770648
  C         3.0961117887       -2.3739705366        9.1629578958
  C         1.9924339864       -2.0126023927        8.3126709004
  C         1.2581845005       -0.9198448182        8.7095176031
  C         1.4901613935       -0.3298162995        9.9970710996
  H         0.8617463862        0.4669701884       10.2299516755
  H         0.5225229484       -0.4179318216        8.0191299294
  H         1.7133457735       -2.5200295554        7.4079682222
  H         3.8163353693       -3.1945100737        8.9791146026
  H         4.2444978469       -2.1211133219       10.8989554151
  C        -0.2519671157        7.2743151992       14.7327414409
  C        -1.3083246572        7.9542213734       15.4439279166
  C        -2.4645675975        8.4441431600       14.7284207274
  C        -3.5270071244        9.1408027203       15.4318493465
  C        -4.5556301464        9.7618739769       14.6940038716
  C        -1.2577139658        8.3164690898       16.9369281193
  C        -0.5394672078        9.5271389689       17.1630714511
  C        -0.4762553589       10.0619425129       18.4645519935
  C        -1.2250725914        9.5156058151       19.5349474660
  C        -2.0778563738        8.4096804886       19.2728314119
  C        -1.9203739853        7.7300750033       18.0757965313
  H        -3.4606239417        9.1018392826       16.5219507870
  H        -5.3479624727       10.1770244895       15.3116468097
  H         0.1231505144        9.8946875380       16.4052883176
  H         0.2229256649       10.8814890959       18.6463717467
  H        -1.2488822233        9.8675191436       20.5641218097
  H        -2.6882022543        8.0731540959       20.1168669204
  H        -2.4090169848        6.7554950321       17.9832636243
  C        -0.2786984355        7.2157374506       13.2220003458
  C         0.8009850139        6.5650854865       12.4905025509
  C         1.9360868554        6.1386835332       13.2347943560
  C         1.9203097707        6.0954392150       14.6918050868
  C         0.8555754816        6.6364244819       15.4151590788
  C        -2.5075716503        8.4401752160       13.2839145511
  C        -1.3866808590        7.9008833602       12.5914799302
  C        -1.2827072237        8.2887577500       11.1755876689
  C        -0.3038268044        9.1954247161       10.6719038646
  C        -0.3313922903        9.7053874288        9.4009680215
  C        -1.2226066122        9.2352519316        8.4360466498
  C        -2.1053180659        8.2512355843        8.8074266644
  C        -2.2692694515        7.8648586377       10.1782239729
  H        -3.0578089489        7.1606612863       10.4208483704
  H        -2.8639277354        7.9162415567        8.0895531525
  H        -1.1071170516        9.4688491605        7.3763560496
  H         0.4242706090       10.4240727123        9.0747767763
  H         0.4928809581        9.5610442111       11.3566767272
  C        -3.6180026147        9.1121630740       12.6710132566
  C        -4.6269297057        9.7225715072       13.3248479614
  H        -5.4979070954       10.1089019682       12.8164187037
  H        -3.4285018737        9.3143178030       11.6264957816
  C         0.8937517571        6.3066516858       16.8812951981
  C         0.1949840410        5.1702843311       17.2106776264
  C         0.2689930645        4.6486717464       18.4983798766
  C         1.0512758485        5.3262804620       19.4487137001
  C         1.7648238114        6.5068417783       19.1654862118
  C         1.7004282919        6.9900060010       17.8407539881
  H         2.0316868670        8.0037494696       17.6053831164
  H         2.4011732817        7.0269608450       19.8603368078
  H         1.2142805884        4.8687431294       20.4612393171
  H        -0.3947080158        3.8222550886       18.7479774765
  H        -0.4258705052        4.7329357067       16.4284998049
  C         3.0687488441        5.3173571068       15.3014624466
  C         4.0422921194        4.7355252783       14.5356096383
  C         4.0710885791        5.0245121905       13.1386236707
  C         3.1186342541        5.7212172714       12.4754298654
  H         3.1761046760        5.9172370471       11.3880111456
  H         4.9739525458        4.7904492370       12.5603718930
  H         4.9087871387        4.1604270339       14.8924973063
  H         3.0206580136        5.2976566168       16.3815139801
  C         0.7421319006        6.2628706921       11.0202570774
  C        -0.0858968694        5.2167992749       10.5406305138
  C        -0.0018576059        4.7932460218        9.2149366849
  C         0.8457650638        5.4191482112        8.2980546865
  C         1.5854160961        6.5259489173        8.7523822929
  C         1.5987522329        6.8374080598       10.1025123146
  H         2.1455377344        7.7372104889       10.4508106107
  H         2.2321008134        7.0572663928        8.0549478087
  H         0.7688698807        5.1885995640        7.2400093203
  H        -0.6708729284        4.0146913513        8.8548670404
  H        -0.6867764226        4.7679164429       11.2695046408
