140

  C        12.9348492261        0.5748965893        1.4409871684
  C        13.8969526449        1.3699311443        2.0652535996
  C        14.9570330012        1.9459157153        1.3647613557
  C        16.0632690482        2.6235745400        1.9678972452
  C        17.0521779066        3.2878913255        1.2884740842
  C        13.8070812706        1.6294964898        3.5392727353
  C        13.3064647906        2.8494086279        4.0109414116
  C        13.4582144248        3.2739596331        5.3510988477
  C        14.3423829901        2.6180661198        6.2465803753
  C        14.8666187918        1.3975787705        5.7664390664
  C        14.6322391227        0.9439428447        4.4558243904
  H        16.1258012266        2.5167321566        3.0552973606
  H        17.8279900249        3.7802046002        1.8502820083
  H        12.7657573261        3.4506562979        3.2422658280
  H        12.8948601028        4.1996581438        5.6350513033
  H        14.5803678005        3.0031620728        7.2235684646
  H        15.4868091989        0.8128521998        6.4199248883
  H        15.0292254854       -0.0557752172        4.2610363904
  C        12.8938993419        0.5523356668       -0.0093514216
  C        11.8322609459       -0.1320129139       -0.6655915535
  C        10.7554096905       -0.6536475808        0.0633214943
  C        10.8107627818       -0.6102285712        1.4777630783
  C        11.8644740455       -0.0878707925        2.1865651548
  C        14.9631298114        1.8741974852       -0.0948854757
  C        13.9128093229        1.2347513134       -0.7367558066
  C        13.9450622981        1.4353046777       -2.2893157368
  C        13.0498218742        2.2952122158       -2.9035756144
  C        13.2381474151        2.7181011916       -4.2073958697
  C        14.3521550715        2.2215864698       -4.9474784823
  C        15.1840609475        1.3134129324       -4.2813094373
  C        15.0187680798        0.8640116193       -2.9307274727
  H        15.6602905245        0.0599191746       -2.6103884845
  H        16.0266047200        0.9623084939       -4.8987814953
  H        14.5608194482        2.5882904482       -5.9724578583
  H        12.4889499042        3.3543098944       -4.6757726734
  H        12.2508888402        2.6669078155       -2.3115531157
  C        16.0021697562        2.5778885905       -0.7773794299
  C        17.0139691150        3.2225609589       -0.1262105436
  H        17.5957271043        3.8963606922       -0.7122236449
  H        15.8615902579        2.6205566712       -1.8397628278
  C        11.9994473649       -0.4657757309        3.6544212426
  C        12.6652099338       -1.6525684053        3.9575089376
  C        12.6801225695       -2.2233183570        5.2895229018
  C        11.9817800334       -1.4973469510        6.2358334886
  C        11.2474000212       -0.3830446142        5.9952743344
  C        11.2818328134        0.1431664915        4.7127312893
  H        10.7822406276        1.1025256668        4.5717337008
  H        10.6565757206        0.0681507293        6.7956858183
  H        11.9848525282       -1.8111525585        7.3197301864
  H        13.1336744636       -3.1926766375        5.4008828087
  H        13.1082222351       -2.1379525372        3.1650777469
  C         9.6392816108       -1.1028152483        2.1610313990
  C         8.6489341963       -1.7107408282        1.4486264049
  C         8.6824120372       -1.8955389602        0.0233491706
  C         9.6921843572       -1.2712953595       -0.6427236293
  H         9.6243922276       -1.3519700068       -1.6813636254
  H         7.8189815682       -2.4459332342       -0.4320839840
  H         7.7714547021       -2.0191246334        1.9607525090
  H         9.4245890484       -1.0350263991        3.2533026645
  C        11.8938552415       -0.4054943252       -2.1524219213
  C        12.8341367715       -1.2944527877       -2.6783269823
  C        12.8196151557       -1.7116695386       -4.0084419999
  C        11.8850350125       -1.1481380263       -4.8313897533
  C        10.9664079529       -0.2384976487       -4.3620255830
  C        10.8858645355        0.0565512729       -2.9750457407
  H        10.0408862071        0.6245305365       -2.6081291115
  H        10.2179853429        0.1505259466       -5.0328877226
  H        11.8263657366       -1.5167200460       -5.8629371497
  H        13.5089155091       -2.4889786367       -4.3657248780
  H        13.5120862278       -1.7680258957       -2.0043967098
  C         9.3362064791        7.5474266459        1.1604376923
  C         8.4710819983        8.3038896782        1.9226172332
  C         7.3108690492        8.8670098870        1.2230761236
  C         6.2156854188        9.5504281276        1.8673974935
  C         5.1741081958       10.1167626259        1.2015626240
  C         8.4789901449        8.5900418357        3.3719620474
  C         9.0438073770        9.7603741181        3.8935781253
  C         8.8660635809       10.1101144893        5.2588008221
  C         8.1839657080        9.2798077129        6.1558520449
  C         7.5821794862        8.1735738807        5.5890522718
  C         7.7802493910        7.8044497962        4.2579859977
  H         6.1963683989        9.4648552011        2.9733544655
  H         4.3684487129       10.5992544852        1.7937032251
  H         9.7559303223       10.3298821865        3.2614146895
  H         9.3478677376       11.0435246191        5.5301339323
  H         7.9301695584        9.6114848119        7.2339917054
  H         6.9790847816        7.5871726556        6.2024031664
  H         7.2258968535        6.9402104642        3.8775532211
  C         9.3450992872        7.5675325934       -0.3071621360
  C        10.3073165008        6.8208988792       -0.9833315532
  C        11.3587231552        6.1918156701       -0.3117081116
  C        11.4744945690        6.3221104347        1.1367857201
  C        10.4806883794        7.0128829588        1.8261868949
  C         7.2447212141        8.8359456882       -0.2349233614
  C         8.3637036275        8.3157467733       -0.9588081423
  C         8.4945637393        8.7295424228       -2.4143217872
  C         9.3374524825        9.8487627608       -2.6568723641
  C         9.3981176140       10.3603746297       -3.9387359810
  C         8.6577462877        9.7625038775       -5.0142732845
  C         7.7824422939        8.6391500331       -4.7747926105
  C         7.6346822617        8.2449890961       -3.4527001428
  H         6.9578746246        7.4154249846       -3.3047062463
  H         7.1445790012        8.1279928830       -5.5254859842
  H         8.7144804807       10.1314549860       -6.0681348005
  H        10.1314043748       11.1521971249       -4.1460779518
  H        10.0333827918       10.2046977971       -1.8747200167
  C         6.1721418279        9.5046725341       -0.9189078845
  C         5.0824687595       10.0705043091       -0.2292082127
  H         4.2197562379       10.4186547208       -0.8123574945
  H         6.1374649983        9.5242218092       -1.9726009928
  C        10.4700559837        6.6472716576        3.2971917199
  C         9.8178422198        5.4742073574        3.6896287329
  C         9.8335272471        5.0440820720        5.0711104024
  C        10.4945756760        5.8578411408        6.0143159940
  C        11.2179869551        6.9798815961        5.5082596097
  C        11.2070827260        7.3851290916        4.2067409508
  H        11.7701293428        8.2369415573        3.9152968233
  H        11.6196957636        7.6754089442        6.2485801966
  H        10.5164611410        5.5831588250        7.0790853970
  H         9.2886349633        4.1187409998        5.2076254091
  H         9.4465647614        4.8764630247        2.8573286462
  C        12.6948814462        5.8974489346        1.6900501546
  C        13.7117798145        5.3218766983        0.9866932421
  C        13.5819644468        5.0474224952       -0.4410884252
  C        12.4518799890        5.4793697822       -1.0513149279
  H        12.4274841441        5.3881121293       -2.1013233683
  H        14.4125764931        4.4906609928       -0.9318514931
  H        14.6744276126        5.0804805731        1.4935663749
  H        12.9371271567        6.0642317508        2.6862765202
  C        10.2214753649        6.4936454934       -2.4475047080
  C         9.1969117798        5.6026660131       -2.7555147913
  C         8.9398365710        5.2481605739       -4.0917944953
  C         9.7515974162        5.6543516113       -5.1154000369
  C        10.8999972492        6.4320311735       -4.7965271389
  C        11.0836310848        6.9752257278       -3.5113759202
  H        11.9318367606        7.5440478004       -3.2404766133
  H        11.5866243654        6.6914066933       -5.6116844219
  H         9.5139352345        5.4736718117       -6.1608522215
  H         8.0331941372        4.6711488080       -4.1311200050
  H         8.5610117394        5.1741846444       -1.9946056428
