140

  C        15.3902755629       -0.8798940099        0.3313897767
  C        16.3744593244       -0.1576303482        1.0653946345
  C        17.4927117185        0.4635728275        0.4844305505
  C        18.6401862403        0.9137740253        1.1844431597
  C        19.7282733327        1.4119476225        0.5104717970
  C        16.1156494299        0.3473599280        2.4387401085
  C        15.3548143266        1.4576558100        2.7630503808
  C        15.2827776027        1.8963982057        4.0906604928
  C        16.0836553999        1.2978392044        5.0620427203
  C        16.9811741235        0.2919090676        4.7120256230
  C        16.9442969789       -0.2350287507        3.4278644374
  H        18.7016087314        0.8414645244        2.2999684023
  H        20.6664835360        1.6573618961        1.0614835073
  H        14.8131673919        2.0076649315        2.0523102408
  H        14.6147937382        2.7071824171        4.3082298998
  H        15.9662637343        1.5515671264        6.1313255021
  H        17.5035981747       -0.1232631709        5.5494508269
  H        17.5366744900       -1.0606098001        3.0878142574
  C        15.4492871791       -0.8306241720       -1.1899812063
  C        14.5594962117       -1.5987609446       -1.9780480508
  C        13.4279292077       -2.2296274541       -1.3055873117
  C        13.3123368082       -2.1467665937        0.1962221125
  C        14.3148381925       -1.6143852386        0.9844758915
  C        17.5178290094        0.5101568348       -1.0007892891
  C        16.5561968121       -0.1202289218       -1.7930134049
  C        16.5423376787        0.1760163219       -3.2668986333
  C        15.5539310429        1.0818587020       -3.7290575568
  C        15.5138035089        1.5081189243       -5.0403237153
  C        16.4223459784        1.0155861192       -6.0028051441
  C        17.3638098439        0.1074438687       -5.5639534842
  C        17.4820614307       -0.2584903001       -4.2070791282
  H        18.1139648203       -1.0334376107       -3.7738587489
  H        18.0653181911       -0.2766173977       -6.3245481436
  H        16.4192651369        1.2833465079       -7.0756321101
  H        14.7580192390        2.2526211624       -5.3131580386
  H        14.8521353690        1.5364993131       -3.0423355457
  C        18.6415377249        1.1624210993       -1.6680090579
  C        19.6812437430        1.5437925593       -0.8685689537
  H        20.5284437044        2.0229477082       -1.3749160734
  H        18.6558328916        1.3034132149       -2.8072701146
  C        14.3145601946       -1.9363091076        2.4498974048
  C        15.0290584040       -3.0725417389        2.8859344962
  C        15.1929451163       -3.3446040309        4.3137113908
  C        14.4896682613       -2.5131612259        5.2949863839
  C        13.8595394195       -1.3869962447        4.7803967369
  C        13.6734532742       -1.0591838092        3.3924027806
  H        13.3030132197       -0.1370669536        3.0310284749
  H        13.2052239497       -0.7733175107        5.4412771931
  H        14.4732126643       -2.8269786539        6.3212966394
  H        15.7700564706       -4.1805571211        4.5476884677
  H        15.4728457911       -3.8049529110        2.1191496488
  C        12.0999170197       -2.7350498607        0.8659842140
  C        11.2132226801       -3.3834165116        0.1371087578
  C        11.4172522321       -3.5852692879       -1.2889056757
  C        12.4523949080       -3.0983155241       -1.9723783873
  H        12.5040129004       -3.3241588623       -3.0649588966
  H        10.6264382216       -4.1615548797       -1.8031385360
  H        10.2538836827       -3.8105728106        0.5517886401
  H        11.9704907642       -2.7151875327        1.9781192635
  C        14.7871580434       -1.9978391215       -3.3980648108
  C        15.6905013109       -3.0691555916       -3.7798497688
  C        15.6975161269       -3.6274611866       -5.0968663714
  C        14.6045129489       -3.3395078838       -5.9429437285
  C        13.7641215737       -2.2770294327       -5.6027884842
  C        13.8596579084       -1.5746235319       -4.4119480740
  H        13.1011440557       -0.7489247507       -4.3045017103
  H        12.8952306944       -1.9584883621       -6.2164064542
  H        14.6594072833       -3.6497164037       -7.0202954163
  H        16.4836262303       -4.4029111732       -5.2973442894
  H        16.3693124823       -3.3498077837       -3.0043231741
  C        11.5882139574        6.0632952601        0.3524454451
  C        10.6749892739        6.9284816458        1.0933308132
  C         9.6427121956        7.5287420443        0.3280981886
  C         8.7949948246        8.4891315524        0.9926366182
  C         7.7123770873        9.0779719975        0.3811820490
  C        10.8637231929        7.3056360206        2.5180100565
  C        11.8150978615        8.3774835588        2.8616165677
  C        11.9403472757        8.8044223027        4.1643132148
  C        11.1341030612        8.2018605755        5.1687256018
  C        10.1776937898        7.2299811559        4.8593843533
  C        10.0177005596        6.7977357326        3.5395595487
  H         9.0297258249        8.6500241659        2.0509022039
  H         6.9848744819        9.7036166411        0.8479661577
  H        12.2220725924        8.7533984616        2.0248029358
  H        12.7329521643        9.6189386418        4.3081550232
  H        11.0678116280        8.5061896071        6.2264602021
  H         9.5882871680        6.7577961462        5.6418024636
  H         9.4339303895        5.9488099443        3.2816263060
  C        11.5781112541        5.9813493850       -1.0876987153
  C        12.6041180781        5.2985692075       -1.8278026874
  C        13.6583157784        4.6543661959       -1.1563085172
  C        13.7758277600        4.8120939613        0.2715655332
  C        12.7104993074        5.3846431135        1.0072202107
  C         9.5774175031        7.3494744543       -1.0532330208
  C        10.6485149864        6.7954426169       -1.7872939062
  C        10.6463641393        7.0977027669       -3.2517259445
  C        11.3638971062        8.2272972469       -3.6505938637
  C        11.3220703122        8.7468894126       -4.9672541841
  C        10.5227167852        8.1469892297       -5.8964381548
  C         9.8314215010        7.0133664122       -5.5806900875
  C         9.8084978532        6.5249234016       -4.2285731910
  H         9.1452821298        5.6989664961       -3.9732215102
  H         9.2061183170        6.5210556682       -6.2893700843
  H        10.4056489504        8.5742785374       -6.9435984872
  H        12.0455869802        9.6104594608       -5.0723277715
  H        12.0203514310        8.7050828613       -2.9246543331
  C         8.5087166308        8.0860754442       -1.7088533247
  C         7.6214292665        8.8955792897       -1.0081459113
  H         6.7769960006        9.2576045304       -1.5568844755
  H         8.5605892072        8.1048149314       -2.8163502759
  C        12.8562749742        5.1458163961        2.4924593517
  C        11.9763784733        4.1577115396        3.0304569624
  C        11.8437602498        4.0802731976        4.4629126641
  C        12.8111598371        4.6849072922        5.2549517645
  C        13.8330948210        5.4521921242        4.6980281592
  C        13.8028913204        5.7616166874        3.3447531624
  H        14.5568801618        6.4531812063        3.0179549395
  H        14.5952691774        5.8796917752        5.3719722207
  H        12.8279140431        4.6025853504        6.3338841213
  H        11.0465461717        3.5080262756        4.9171209745
  H        11.1586047537        3.7173366438        2.3710807568
  C        14.9906201638        4.3627515330        0.8868874161
  C        15.9780480874        3.7757163668        0.1642389730
  C        15.8727054038        3.6531392813       -1.2444166153
  C        14.7384622111        4.0237649866       -1.8984305076
  H        14.6043447689        3.9443284942       -2.9578754715
  H        16.7313587799        3.2469692251       -1.8595328585
  H        16.8876084941        3.5334687251        0.7286886381
  H        14.9909601973        4.4803765802        1.9031466545
  C        12.5456717669        5.0355334257       -3.2985794497
  C        11.8271613159        3.8988281462       -3.8973608007
  C        12.0540258650        3.4936776694       -5.2072995114
  C        12.8915948982        4.2358034239       -6.0307257515
  C        13.5028237514        5.4187048625       -5.5216065730
  C        13.4004778487        5.6846134138       -4.1533772044
  H        14.0430290367        6.4861082642       -3.7965151454
  H        14.0897855510        6.0359721293       -6.0946621581
  H        12.9933161556        4.0019569033       -7.0959867183
  H        11.4144282321        2.7927988724       -5.7478441690
  H        11.0463229745        3.5214776501       -3.3368707077
