140

  C        14.3420159910        0.2550449567        1.2896377173
  C        15.4705738646        0.8530872971        1.8996769428
  C        16.4580585532        1.5335439864        1.0976530203
  C        17.7352803473        2.0552691629        1.6032078246
  C        18.7289484525        2.7186222541        0.8742754570
  C        15.4625114274        1.2729694342        3.3632780337
  C        14.5662818409        2.1940327961        3.8084133560
  C        14.5097802166        2.5932387474        5.1545307614
  C        15.5558146887        2.2373850722        5.9847977399
  C        16.5077846106        1.3156500842        5.5252927601
  C        16.4146340246        0.7979787607        4.2749621036
  H        17.9092157443        1.8937174094        2.6672635865
  H        19.6017457655        3.0620302278        1.3935690006
  H        13.8692005950        2.5937170759        3.1354583028
  H        13.7426248570        3.2974002844        5.3764504286
  H        15.5302354984        2.4363729319        7.1007354312
  H        17.3541651352        1.0640281279        6.1383371402
  H        17.0159067702       -0.0665358764        4.0683607444
  C        14.2349734920        0.3090956392       -0.2074459185
  C        13.2787590265       -0.5361625259       -0.8577833644
  C        12.2515001778       -1.1116982307       -0.1386281595
  C        12.2992505685       -1.0804546394        1.3407269987
  C        13.4165931402       -0.5353241026        1.9891624797
  C        16.3598237910        1.5524944836       -0.3590907600
  C        15.1826249623        1.0130482579       -0.9673360553
  C        15.1393591485        1.1914311220       -2.4182406106
  C        14.3214949581        2.2365986965       -2.8775930908
  C        14.3083374586        2.6479081497       -4.1951805154
  C        15.1961686945        2.1003359440       -5.1512061631
  C        15.9989611412        1.0018628208       -4.7035604028
  C        15.9381704162        0.5413135453       -3.3719802433
  H        16.5830544021       -0.2810000969       -3.0781689641
  H        16.7230956992        0.5123749172       -5.3352827151
  H        15.1115988958        2.4310532163       -6.1769383526
  H        13.6544171266        3.4580770155       -4.4687427993
  H        13.6388633726        2.7491778866       -2.2071556088
  C        17.3929536218        2.2938705981       -1.0556546915
  C        18.5546861676        2.8333152221       -0.5016006861
  H        19.2920290330        3.4342098491       -1.0100777894
  H        17.2258761353        2.5024482716       -2.1282435324
  C        13.4794554892       -0.8089594847        3.4737746224
  C        14.2357049560       -1.9728801855        3.8696012815
  C        14.2458624760       -2.3814181295        5.2324914780
  C        13.5782155055       -1.6056460634        6.1607155427
  C        12.7974833938       -0.5217799603        5.7581580747
  C        12.7757663415       -0.0264345790        4.3787012862
  H        12.1750230464        0.8458558818        4.0284107589
  H        12.1489035939       -0.0444784439        6.5285800297
  H        13.6105151831       -1.8751281177        7.2334582795
  H        14.9283033533       -3.1668022776        5.4746228862
  H        14.6116540539       -2.5624117636        2.9527430963
  C        11.2220870795       -1.6546401829        2.0927627227
  C        10.1123177254       -2.0834212008        1.3971304514
  C        10.1062907804       -2.2142348865       -0.0054258307
  C        11.1790465350       -1.7487058892       -0.7210965773
  H        11.2236465904       -1.9052862920       -1.8054297684
  H         9.3428149090       -2.7558652434       -0.5353630826
  H         9.2608878936       -2.3904639324        2.0048183703
  H        11.2601201152       -1.5452027911        3.1811752561
  C        13.3934855926       -0.8247035612       -2.3736803737
  C        14.2425531959       -1.9159465871       -2.7189457721
  C        14.3053413740       -2.3827189534       -4.0449827794
  C        13.5387514627       -1.7431498590       -5.0585290627
  C        12.6707620994       -0.6952243879       -4.7036140258
  C        12.5669572053       -0.3093534804       -3.4040063183
  H        11.8752540080        0.4395015358       -3.1219855445
  H        12.0306198063       -0.1787818466       -5.4297045948
  H        13.4787801929       -2.1405089360       -6.0570611452
  H        15.1007515741       -3.0774501183       -4.3229260076
  H        14.7480738744       -2.4910337445       -1.9045609842
  C        10.8364629170        7.4836611277        1.7172170391
  C         9.9111416669        8.2952088882        2.3938341044
  C         8.7668051437        8.8062257507        1.7156220669
  C         7.7570931827        9.5693675215        2.3748759500
  C         6.6039060526       10.0321512599        1.7156300641
  C        10.0187017684        8.6906227441        3.7926651147
  C        10.7554514599        9.8110157442        4.2392133864
  C        10.7327095720       10.3107946947        5.5452355422
  C         9.9374946277        9.6076341833        6.5178700478
  C         9.1670012613        8.5839621287        6.0884370467
  C         9.2109512500        8.0795614360        4.8011860406
  H         7.7809647043        9.7377463035        3.4356870868
  H         5.8259484108       10.6304725881        2.1952037038
  H        11.3509325801       10.4280776885        3.5171124132
  H        11.4230835926       11.1105604172        5.9356995389
  H         9.8623104371       10.0326229249        7.4793270711
  H         8.5322496295        8.0910593360        6.8055012911
  H         8.5459304732        7.3282083159        4.5477219937
  C        10.8062994569        7.4753603432        0.2585903815
  C        11.8779756611        6.7007032270       -0.4414928416
  C        12.9694809880        6.1853625934        0.2737604150
  C        12.9496888250        6.1382428556        1.7787521089
  C        11.8754987873        6.7793943304        2.4396399574
  C         8.6156929625        8.5669030347        0.2999253618
  C         9.7366338389        8.0764320909       -0.4492685584
  C         9.7403411996        8.3539946931       -1.9518551269
  C        10.6185230150        9.3453279733       -2.4503185931
  C        10.5460194657        9.7744550229       -3.7435825548
  C         9.6857331998        9.1134359427       -4.6273890951
  C         8.9020979584        8.0848956925       -4.1815587180
  C         8.8716503421        7.6797258534       -2.8422581281
  H         8.3829615200        6.8301532932       -2.4074494569
  H         8.2670657264        7.5257997559       -4.7953833881
  H         9.6071928568        9.5232845686       -5.6825537136
  H        11.1629678605       10.6272540091       -4.1166456470
  H        11.1645834192        9.9139538141       -1.7063763763
  C         7.4094834629        9.1031310386       -0.3835815659
  C         6.4324782140        9.7818219626        0.2838915080
  H         5.5900361604       10.1409806127       -0.1904211856
  H         7.2950567488        8.9727550178       -1.4519609745
  C        11.8632308286        6.4467179386        3.9113773693
  C        11.2042014161        5.2501943244        4.2773609381
  C        11.2685386473        4.7607764512        5.5730642218
  C        11.9260014308        5.4068029410        6.5563352895
  C        12.6311084211        6.5938724417        6.2797578654
  C        12.5997702281        7.1382676904        4.9323887961
  H        13.1067916631        8.0921842009        4.6481269288
  H        13.1408140379        7.1268053234        7.0642241581
  H        11.8013344303        5.0709530186        7.5760766287
  H        10.8633749838        3.7305508244        5.7732717687
  H        10.7079232069        4.6603468634        3.4822111186
  C        14.0183028473        5.4070243120        2.3510518228
  C        15.0809345507        4.8772021647        1.6426603214
  C        15.1834216826        5.0497278679        0.2781752156
  C        14.1687337849        5.6867323027       -0.3974477110
  H        14.1437796903        5.8031624694       -1.4909809372
  H        15.9677517888        4.5015047831       -0.2586645202
  H        15.8616411172        4.2336846744        2.0710193460
  H        13.9930809221        5.1640412701        3.4095002417
  C        11.6512552726        6.1445952631       -1.8653557704
  C        10.9544540849        4.9654839686       -2.0800577513
  C        10.6659695727        4.3944889831       -3.3633243549
  C        11.1714724124        5.1488820594       -4.5322742490
  C        11.9661722507        6.2736288340       -4.2520621193
  C        12.1038901918        6.8438900232       -3.0022092403
  H        12.7618879304        7.6941897273       -2.8216896311
  H        12.5381531933        6.8018472900       -4.9682722079
  H        11.1848639555        4.8330265489       -5.5344980353
  H        10.2083922906        3.4000071163       -3.4242380006
  H        10.5102978070        4.4435682863       -1.2303605710
