140

  C        15.5580663464       -0.8258616088        0.3763615539
  C        16.6483918090       -0.1449309904        1.0375234579
  C        17.6705508132        0.4295268885        0.2773875540
  C        18.8140046415        1.1127979054        0.9009269348
  C        19.8462030026        1.6942427288        0.2081786492
  C        16.5802809556        0.2025615466        2.4608018479
  C        15.9154345690        1.3481249945        2.8950148447
  C        16.0720468133        1.8181077528        4.2075123698
  C        16.8821393314        1.0713033660        5.0845495419
  C        17.4778802822       -0.1680209055        4.6688757511
  C        17.3118640456       -0.6211306838        3.3789510129
  H        18.8917931051        1.0183345196        2.0065645967
  H        20.6401867605        2.1498316456        0.7414370662
  H        15.4403745464        1.8882554442        2.1660422248
  H        15.7263989921        2.7939257734        4.5186829030
  H        17.1800642406        1.5007132561        6.0523164385
  H        18.1631616303       -0.6947051378        5.2949630416
  H        17.8365263795       -1.5074541064        3.0118163887
  C        15.6052884051       -0.8503561079       -1.1246868935
  C        14.5156074227       -1.4388615058       -1.8598829628
  C        13.4557029425       -1.9264581551       -1.1316026536
  C        13.3589503402       -1.9383410448        0.3141243672
  C        14.4598959167       -1.4410924407        1.0894202617
  C        17.7044390698        0.4741865592       -1.1585493532
  C        16.6971489911       -0.2458750082       -1.8633465914
  C        16.7015539985        0.0549571514       -3.3725050641
  C        15.7881666003        1.0246351307       -3.8226474204
  C        15.8643263336        1.4149243156       -5.1372419491
  C        16.7856923444        0.8236052834       -6.0364295845
  C        17.6638840075       -0.1463300251       -5.5772145524
  C        17.5995605297       -0.5554271561       -4.2431831387
  H        18.2345255436       -1.2626641859       -3.7003665666
  H        18.3325197981       -0.6720798542       -6.3183967923
  H        16.8059459622        1.0801496566       -7.1251918703
  H        15.2357596683        2.2137242590       -5.5293935605
  H        15.1329196506        1.5244481060       -3.1059150146
  C        18.7620452195        1.1794490145       -1.9221080081
  C        19.8447770818        1.6280183492       -1.2349235406
  H        20.7703591352        2.0494604601       -1.7013696979
  H        18.7358391875        1.2101471870       -3.0381278162
  C        14.4618494021       -1.7695558820        2.6044091023
  C        15.1044410912       -2.9007065444        3.1004863294
  C        15.0339917391       -3.1515272676        4.4587003596
  C        14.1344131597       -2.3626848862        5.2125695716
  C        13.4783516904       -1.3025271492        4.7394203820
  C        13.6533621146       -1.0424973405        3.4138534255
  H        13.1371070455       -0.1719303718        2.9631757032
  H        12.8730666849       -0.6207853587        5.3713343009
  H        13.8850894429       -2.7270646160        6.2034887673
  H        15.4301779661       -3.9833962058        4.9108492651
  H        15.7097892619       -3.5922519687        2.4242120010
  C        12.2151430446       -2.5782471453        0.9962498907
  C        11.3023035676       -3.3448270750        0.2864421206
  C        11.4947889573       -3.4937540937       -1.0902967361
  C        12.4395541020       -2.7648927526       -1.7685095193
  H        12.5230752050       -2.8894631575       -2.8383704587
  H        10.7449098027       -4.1131630626       -1.5840274681
  H        10.4216733764       -3.8885843357        0.7348882572
  H        12.2528028952       -2.5611908491        2.0673456891
  C        14.6975004256       -1.9991439272       -3.3041628964
  C        15.6930507147       -2.9755465223       -3.4081476870
  C        15.9850627561       -3.6186455042       -4.5990188343
  C        15.1485233530       -3.2841014918       -5.6997273653
  C        14.0482542912       -2.4548971547       -5.5470153131
  C        13.8877073131       -1.7306800220       -4.3834362948
  H        13.0316849638       -1.0280988776       -4.3371435337
  H        13.3676698567       -2.3625098195       -6.4156666652
  H        15.2503567988       -3.8567531373       -6.6180738921
  H        16.7174564031       -4.3827204229       -4.7466014734
  H        16.0744188613       -3.2624437921       -2.3936096344
  C        11.9362276766        6.1910142656        0.4617479403
  C        10.8536191828        6.8333646964        1.1332795809
  C         9.6783552420        7.2096895739        0.4294314016
  C         8.5832818799        7.7911260258        1.0807292478
  C         7.4532974627        8.2466068262        0.3988972876
  C        10.9514560123        7.2585448945        2.5971269420
  C        11.7821870038        8.4166562427        2.8543655438
  C        11.7331802143        9.1128302415        3.9854022473
  C        11.0280672652        8.6012189898        5.0981677534
  C        10.3641798375        7.3392766812        4.9368111223
  C        10.2590813734        6.7430110266        3.7094434916
  H         8.5179595908        7.8992770150        2.1655119667
  H         6.6459871047        8.8328664612        0.8769002522
  H        12.4162562072        8.7646941579        1.9809676727
  H        12.2832452165       10.0494140880        4.1871106651
  H        10.9211249740        9.2539742568        6.0597627929
  H         9.9036479519        6.9840488980        5.8471801560
  H         9.7691493588        5.7791595730        3.7005184734
  C        11.9913295663        6.2111756543       -0.9954255192
  C        13.0179178719        5.5584889196       -1.7301308913
  C        14.1189236879        4.9882338646       -1.0534518287
  C        14.0417940685        4.8061987846        0.3990598570
  C        13.0177819696        5.4955772014        1.1196617047
  C         9.7378429956        7.3234834067       -1.0107190720
  C        10.9176631408        6.8112482467       -1.7093873643
  C        11.0005168457        7.2211009738       -3.1551073423
  C        11.8041975309        8.2833158378       -3.5308238125
  C        11.8042006556        8.8578397487       -4.8340276956
  C        10.9251844171        8.3598873507       -5.7797686227
  C        10.1021548345        7.2437756034       -5.4636020297
  C        10.0191349641        6.7177185512       -4.1212661223
  H         9.2520698290        5.9486049759       -3.9888181965
  H         9.3501181014        6.9889929621       -6.2405384081
  H        10.9196514612        8.8156274029       -6.7830230520
  H        12.4086619730        9.7667056591       -5.0556916896
  H        12.3529987020        8.7224860524       -2.7655147344
  C         8.6243872974        7.9061405048       -1.6748772784
  C         7.4465721929        8.2985687383       -0.9916362693
  H         6.7122954209        8.8717239298       -1.5364535122
  H         8.6214943811        8.0849473766       -2.7898504685
  C        12.8779181524        5.0509484346        2.5287086976
  C        12.1883928091        3.8820732621        2.8927996728
  C        12.0405498268        3.4008278613        4.2353079496
  C        12.7050718874        4.0480516656        5.2386743038
  C        13.6094635234        5.0923674802        4.8833126938
  C        13.6153987626        5.6460860685        3.5588515716
  H        14.3053637678        6.4763418453        3.4064605026
  H        14.2757360493        5.5944632312        5.5338449680
  H        12.5883034708        3.8009503050        6.2515856828
  H        11.3892576911        2.5323137912        4.4002245729
  H        11.6132289627        3.4931186674        2.0742253860
  C        15.1427555034        4.2133962121        1.0584903464
  C        16.2479899433        3.7134550518        0.4068656564
  C        16.2588213366        3.8389820703       -1.0131824480
  C        15.1682238270        4.4128630235       -1.7263191071
  H        15.2527514662        4.4033951509       -2.7807753499
  H        17.0814674194        3.4176022124       -1.5628712464
  H        17.1190813482        3.2968640812        0.8408154138
  H        15.2452664219        4.1188984549        2.1549718132
  C        12.9266543105        5.2019224611       -3.1791477207
  C        12.1097094996        4.0612345036       -3.5780188103
  C        12.0509520719        3.7276214856       -4.9509518751
  C        12.8157640534        4.3791254493       -5.9184575985
  C        13.6280917561        5.4748504073       -5.5420803394
  C        13.6232790594        5.8800925344       -4.2050261953
  H        14.3106457241        6.7175789352       -3.9069810328
  H        14.2479777239        5.8814260039       -6.2595556726
  H        12.8209183203        4.0860229459       -6.9467257973
  H        11.3764858118        2.9098546150       -5.2704140400
  H        11.5012425096        3.7398620857       -2.8159669301
