140

  C        15.7762011149        0.1375834942        2.6716631486
  C        16.8931393322        0.8495829895        3.2641532209
  C        17.9100474231        1.4246815599        2.4911656477
  C        18.9396096763        2.1958991075        3.1121516456
  C        19.9642826378        2.7047726714        2.4153918705
  C        16.8930011512        1.1293294338        4.7376692682
  C        16.0980633383        2.2058524062        5.2486836143
  C        16.0647053159        2.5287690545        6.5835364349
  C        16.8546505598        1.8079843054        7.4574710413
  C        17.6268375151        0.7256077046        7.0040309990
  C        17.6221713754        0.3933234863        5.6759367513
  H        18.9195934718        2.3587446070        4.1951995990
  H        20.6842781092        3.2771709841        2.9745262948
  H        15.4948166914        2.8175997059        4.5057552188
  H        15.2783170284        3.1935239253        6.8837530181
  H        16.8152835922        1.9836846587        8.5355400935
  H        18.2475446452        0.1604916156        7.7953519502
  H        18.2185034087       -0.5002592380        5.2818439046
  C        15.6619036839        0.1151380217        1.1541590757
  C        14.5535897478       -0.5882891280        0.6045799543
  C        13.5362328595       -1.2313858669        1.3816032161
  C        13.7477152114       -1.3647959562        2.8070879360
  C        14.8741958057       -0.7019453369        3.4391770110
  C        17.8644036418        1.2864631743        1.0658071150
  C        16.7059769262        0.7559482287        0.4002018000
  C        16.6737616386        0.9177192290       -1.0525213191
  C        15.9528165715        1.9610549086       -1.6092913707
  C        16.1594738763        2.3482199711       -2.9563303230
  C        16.9796423249        1.6200202846       -3.7669299133
  C        17.6298320812        0.5074328379       -3.2678022830
  C        17.5133462355        0.1949733106       -1.9207152011
  H        17.9204851430       -0.6968616951       -1.4578944089
  H        18.2088049804       -0.2027196472       -3.8208490185
  H        17.1357991831        1.8336957598       -4.7862120192
  H        15.5873422036        3.1854039610       -3.3486790470
  H        15.2490015270        2.5964071202       -1.0826111537
  C        19.0381030702        1.7859914250        0.3470574801
  C        20.0568976490        2.5253128306        0.9989203185
  H        20.8131410682        3.0529458426        0.3957974496
  H        19.0070223328        1.7409581156       -0.7680348798
  C        14.9380653203       -0.9557220532        4.9025911647
  C        15.5466969665       -2.1616951022        5.4832809663
  C        15.3044599471       -2.5384899958        6.7957687413
  C        14.4975833296       -1.7072139836        7.6197201659
  C        13.9771945744       -0.5221249612        7.0966881478
  C        14.2103528471       -0.1653629556        5.7885939524
  H        13.6167570230        0.6153673148        5.3652461844
  H        13.2253709905        0.0955755348        7.7614562108
  H        14.3622510972       -1.9315641962        8.7616984840
  H        15.7187532904       -3.4855409798        7.1818378961
  H        16.0117885688       -2.7797456087        4.7447632725
  C        12.8306767167       -2.1282965905        3.5391343409
  C        11.6965880996       -2.6999591244        2.9291947472
  C        11.4710991346       -2.5456518197        1.5055818608
  C        12.4151172664       -1.8894881639        0.7648576852
  H        12.2864301454       -1.8098010909       -0.3061633957
  H        10.8124439050       -3.2718400151        0.9583934904
  H        11.0657510060       -3.4533047483        3.4711290527
  H        13.0183092530       -2.3750486410        4.5705539308
  C        14.5147525282       -1.0188003722       -0.8370898997
  C        15.1282174178       -2.2003476480       -1.2625503056
  C        15.1024390057       -2.5059203755       -2.6010884671
  C        14.3828246808       -1.7475617539       -3.5413319496
  C        13.5844420741       -0.6944759565       -3.0574030202
  C        13.6763755698       -0.2798593910       -1.7183299624
  H        13.1588226048        0.6300575228       -1.3599453142
  H        12.9209034192       -0.2222085708       -3.7717440160
  H        14.2682118116       -2.0330438682       -4.5486666219
  H        15.5578529158       -3.4230441869       -2.9821132845
  H        15.6846917983       -2.8303188359       -0.4932679905
  C        12.1295024400        7.1778900601        2.7150757320
  C        11.1016662528        7.8821595886        3.4381309460
  C        10.0235405659        8.4870677127        2.7440173746
  C         8.7949530110        8.9865463792        3.3456661839
  C         7.8533064887        9.7492578086        2.7065620735
  C        11.2422797948        8.1564229128        4.8688374729
  C        12.0393446671        9.1257780522        5.4201461926
  C        12.0650607256        9.4778065962        6.7496238108
  C        11.2767017466        8.7845815047        7.6668812602
  C        10.4745509586        7.7587435856        7.1890143875
  C        10.4109782733        7.4823489739        5.8291058038
  H         8.7744336519        8.9344375255        4.4623165847
  H         7.0910814139       10.2425899280        3.2785020228
  H        12.6762957723        9.6490960430        4.6693701558
  H        12.7742765494       10.3170086693        6.9755933100
  H        11.2875599476        8.9197788852        8.7503329996
  H         9.7961028802        7.2271885507        7.8670983354
  H         9.6237262636        6.7791419124        5.4333863017
  C        12.1001805104        7.1208935702        1.1712868462
  C        13.1718861887        6.4419608222        0.4130896541
  C        14.2776481859        5.9235172997        1.1544735855
  C        14.2572634162        5.9992946291        2.5882523066
  C        13.1921904241        6.4591846861        3.3253194257
  C        10.0378913279        8.5409115581        1.3604707248
  C        11.0906368874        7.9247569975        0.5981717796
  C        11.1359073923        8.2708833600       -0.8744916718
  C        12.0067267013        9.2732841860       -1.3285696984
  C        12.0045972340        9.6200207247       -2.6761795090
  C        11.1502537108        9.0045911238       -3.5532441048
  C        10.3383923454        7.8982610301       -3.1767150089
  C        10.3545325584        7.5906357777       -1.8548414610
  H         9.5812209635        7.0022438866       -1.3576762439
  H         9.6178278826        7.5205454052       -3.8971394098
  H        11.1528274490        9.3834466551       -4.5434290492
  H        12.5508480094       10.4535871700       -3.1007690957
  H        12.5787088211        9.9391872441       -0.6657682042
  C         9.0304764367        9.3576300295        0.6662785470
  C         8.0331595912        9.9848060116        1.3493422797
  H         7.4548754384       10.6577449675        0.7571675154
  H         9.1961337030        9.6277917350       -0.4229531070
  C        13.2178005126        5.9810026641        4.7531883928
  C        12.6215706735        4.7620224980        5.1392081615
  C        12.7218959802        4.5234371218        6.5593668651
  C        13.3917325879        5.3174041479        7.5284061709
  C        14.0548157178        6.4270276717        7.0294657085
  C        13.9583225385        6.7765371756        5.6462515114
  H        14.4563914017        7.7033079056        5.2717418756
  H        14.6975934666        7.1110902317        7.5921779163
  H        13.3681933328        4.9597154920        8.5741414780
  H        12.1489134869        3.6767359968        6.8890498681
  H        11.9526614321        4.2358328764        4.4497385512
  C        15.3673037280        5.3487171720        3.2429046460
  C        16.3413656004        4.6440399899        2.5689149121
  C        16.3867684686        4.6672488295        1.1677530068
  C        15.3760395358        5.2896878796        0.5200595929
  H        15.3856398443        5.3670354003       -0.5956869411
  H        17.0866325247        4.0556597088        0.6389809938
  H        17.1148602483        4.1888300095        3.1827213124
  H        15.4101137275        5.2258175390        4.3304708459
  C        12.9586487521        5.9859803390       -1.0419436451
  C        12.0080214141        4.9686675315       -1.2746797529
  C        11.7931749773        4.4886493428       -2.5221475220
  C        12.5787171310        4.9090288964       -3.6405314093
  C        13.6249320505        5.8168601206       -3.3638166305
  C        13.7984720899        6.3725511586       -2.1179870124
  H        14.5336542571        7.2716306808       -2.0604593012
  H        14.3424552394        5.9949394683       -4.1440062631
  H        12.3065743408        4.6295901207       -4.6400132290
  H        10.8995760102        3.9134427256       -2.7376446558
  H        11.2227668936        4.6711193604       -0.5293948220
