140

  C        13.1596885434        0.5013743434        1.1770110443
  C        14.1783063613        1.2169647548        1.8059432427
  C        15.2213102280        1.7918716700        1.1098513840
  C        16.2060969662        2.7078722501        1.7077062972
  C        17.2861441356        3.1655454803        1.0312463565
  C        14.1386530946        1.6460826815        3.2364832766
  C        13.1362975641        2.6152616058        3.5802365640
  C        13.0250221380        3.0578324633        4.8806211576
  C        13.9389113752        2.5588791984        5.8221273642
  C        15.0228494164        1.7445476713        5.4961255301
  C        15.1415403302        1.2556845328        4.1798877440
  H        15.9425379484        3.0494609083        2.7221431649
  H        17.9814866470        3.7944080660        1.6164847996
  H        12.4278328837        2.8423527236        2.8374030544
  H        12.1997774026        3.6797034187        5.1791072507
  H        13.7961456560        2.8816631194        6.8568848722
  H        15.6589768370        1.3343096784        6.2815088938
  H        15.9451121669        0.5614548266        3.9370813279
  C        13.2632566740        0.2905012888       -0.2868518061
  C        12.1216857074       -0.3364262559       -0.9069134440
  C        10.9852097763       -0.7137676537       -0.1822149178
  C        11.0300299718       -0.6757551197        1.3141731177
  C        12.1482263193       -0.1873071191        1.9499571734
  C        15.3065252559        1.6166560030       -0.2938525785
  C        14.3371128756        0.8781374536       -1.0006630653
  C        14.2358125851        1.1812449125       -2.5074802233
  C        13.4544447507        2.3498836388       -2.6941355282
  C        13.3437210232        2.8881870110       -3.9511673451
  C        14.0768808997        2.3927783768       -5.0493212258
  C        14.8455840974        1.2265485617       -4.8984952882
  C        14.9113332971        0.6031979523       -3.5783660972
  H        15.6357095862       -0.2064061694       -3.4119253929
  H        15.3516568400        0.7116572269       -5.7219290441
  H        14.0795501161        2.9197705416       -6.0095689619
  H        12.8041551975        3.8040071068       -4.1449085844
  H        13.0757358662        2.7750440936       -1.7468704874
  C        16.3825008719        2.3056652812       -1.0382915196
  C        17.3857584400        3.0200239300       -0.3084021567
  H        18.2310245932        3.3442240029       -0.9218276830
  H        16.3687293039        2.1901918758       -2.1165984297
  C        12.2532089619       -0.4375205731        3.4198194563
  C        13.2534340131       -1.3019950285        3.8082602102
  C        13.3351385043       -1.8122027899        5.1141083497
  C        12.4041415294       -1.3503023689        6.0124784893
  C        11.3697460282       -0.4269873542        5.6760325535
  C        11.3566580673        0.0318189907        4.3661336042
  H        10.6121855106        0.8068144675        4.1163798622
  H        10.6375429528       -0.1562665803        6.4027114393
  H        12.6280446490       -1.7625692318        7.0131153636
  H        14.1582603409       -2.5402823553        5.3327491420
  H        14.1242002818       -1.5601503735        3.1495759826
  C         9.8880221236       -1.1232701749        2.0365384406
  C         8.8186401841       -1.7150352854        1.4078810020
  C         8.7428879515       -1.6602189381       -0.0133872019
  C         9.8114412879       -1.1981623891       -0.7783111559
  H         9.7722596749       -1.1455625965       -1.9331411139
  H         7.8627614515       -1.9975391356       -0.5207795441
  H         7.9835202267       -2.1687277511        1.9346997886
  H         9.9164625600       -1.1645535351        3.0794925239
  C        12.1739835261       -0.7835443892       -2.4076345027
  C        12.9579443076       -1.8238063506       -2.7569909771
  C        12.8043960181       -2.4580686538       -4.0473010369
  C        11.9868607394       -1.8678209505       -5.0191845051
  C        11.2492403437       -0.7356157888       -4.7465147551
  C        11.3386702958       -0.2396015583       -3.4352895147
  H        10.7308369985        0.6540503239       -3.2119160606
  H        10.6767018168       -0.2291165690       -5.5147036851
  H        11.9577723310       -2.2401908222       -6.0328256293
  H        13.4501941175       -3.2974073592       -4.2232989882
  H        13.7248471350       -2.2193612755       -2.0864872626
  C         9.5788784283        7.6330679849        1.0975295979
  C         8.6201381776        8.4118505960        1.8095969434
  C         7.4624852324        8.7614449419        1.1515647423
  C         6.5582882385        9.5773473882        1.8559250710
  C         5.4759319413       10.0898107764        1.1953087925
  C         8.8237090584        8.9594016613        3.2426839379
  C         9.7367854696       10.0703176642        3.4444321594
  C         9.9720512756       10.4667270837        4.7415429806
  C         9.1612677942       10.0013814234        5.8111518456
  C         8.2082973288        8.9589711875        5.5784969254
  C         8.1097759982        8.4397455767        4.2855634470
  H         6.7410538505        9.7505713128        2.8750512206
  H         4.7919589180       10.7117820968        1.7296806328
  H        10.1620842800       10.5755526744        2.5842567661
  H        10.6381019096       11.2733726208        5.0225023548
  H         9.3228770790       10.4322290769        6.8744437028
  H         7.5582941054        8.5331255865        6.4018510449
  H         7.5094229509        7.5353831592        4.1013608639
  C         9.5152120016        7.5579519208       -0.4444214888
  C        10.5762602142        6.7806075211       -1.1456319545
  C        11.6815534331        6.3263370099       -0.4065079974
  C        11.7751272030        6.5145658972        1.0144020792
  C        10.7001547586        6.9267248764        1.8045166290
  C         7.3766499089        8.7205336062       -0.2917949086
  C         8.4986220673        8.2715650914       -1.0779897000
  C         8.4249173065        8.6034170190       -2.4954163260
  C         9.0725973105        9.7291182170       -2.9281531183
  C         8.9779907031       10.2425513469       -4.2035588217
  C         8.0755119988        9.6432177405       -5.1053720056
  C         7.3646854197        8.5276240507       -4.7156338490
  C         7.5447079187        7.9590867422       -3.3976263792
  H         6.9446850781        7.1458471871       -2.9576883634
  H         6.8512214370        8.0239415256       -5.5180643202
  H         7.9689946287       10.0456045462       -6.0849049612
  H         9.5367438034       11.0937655660       -4.6045830035
  H         9.5994106546       10.3075605855       -2.1787963192
  C         6.3313111937        9.4639534906       -0.9499824019
  C         5.3878775809       10.0760840851       -0.2241296274
  H         4.5472468428       10.5573504528       -0.7360128457
  H         6.3176322654        9.5382536599       -2.0636360114
  C        10.6771205372        6.6075204905        3.2184820574
  C         9.6822443694        5.6626012411        3.7109495878
  C         9.7324239638        5.3593039492        5.1167988801
  C        10.6647595299        5.9845776348        5.9441559885
  C        11.6041709763        6.9189005834        5.4524603115
  C        11.6231665569        7.2336342781        4.1367490784
  H        12.2343789039        8.0771512183        3.7344204788
  H        12.3133921382        7.4224451118        6.1180652261
  H        10.7019194538        5.6333384409        6.9654580593
  H         8.8996215068        4.7653593971        5.5060618475
  H         8.9031813158        5.2185856590        3.0877685383
  C        13.0087135466        6.0033358889        1.6444584600
  C        13.9203591322        5.2201755580        0.9688624317
  C        13.8248343791        5.0623568071       -0.4790680728
  C        12.7019338521        5.5683843277       -1.1280814271
  H        12.6211659354        5.5316466784       -2.2597536747
  H        14.5810083469        4.4956020674       -0.9781649628
  H        14.8949826378        5.0595183871        1.3974033836
  H        13.2333196916        6.2865975582        2.7345947600
  C        10.5204346979        6.6107451686       -2.5899414052
  C         9.8174109442        5.5000406996       -3.0956941629
  C         9.8972084077        5.1534064438       -4.4618072392
  C        10.6140193142        5.9174639487       -5.3944823505
  C        11.2158827116        7.0884057235       -4.9069809071
  C        11.2292447109        7.3428996125       -3.5516780564
  H        11.8100242667        8.2100647034       -3.1401259342
  H        11.7831706476        7.7503003753       -5.5732024999
  H        10.7031601450        5.5026237130       -6.3883232797
  H         9.4319505047        4.2076063908       -4.7959531464
  H         9.2961564951        4.8943535003       -2.3746767595
