140

  C         1.1331653260        1.2180755034       15.1772936119
  C         2.2356958255        1.8142248500       15.8842050096
  C         3.3350386521        2.3585992252       15.1700507464
  C         4.5079417131        2.7734542756       15.8424400630
  C         5.6341139148        3.2039501173       15.1203799964
  C         2.1606211269        2.2605671566       17.3486296220
  C         1.3816447634        3.3412375034       17.6505440035
  C         1.5667669871        3.9778352626       18.8895139736
  C         2.4219979831        3.5332489275       19.9020816334
  C         3.2317480615        2.4239614390       19.6133730899
  C         3.0235572469        1.7342854727       18.3801818926
  H         4.6606789724        2.6368153492       16.9025081529
  H         6.5609209907        3.4722993984       15.6021114616
  H         0.7091443591        3.7897624390       16.8870351283
  H         0.8690393962        4.7750817847       19.1000464234
  H         2.4460831817        4.1693069031       20.7742513874
  H         3.9269085874        2.1017018146       20.3615505103
  H         3.5464657504        0.7992469491       18.1186918336
  C         1.1900102629        1.2501101051       13.6580140208
  C         0.1489551242        0.5345397706       12.9659717718
  C        -0.8970217002       -0.1300398518       13.6996775657
  C        -0.9089683663       -0.1661978433       15.2000438717
  C         0.0962226343        0.5280131956       15.8512977453
  C         3.2486911891        2.4851508584       13.7309136870
  C         2.1572434032        2.0263428567       12.9987956683
  C         2.0815775181        2.3273982990       11.5629486815
  C         1.2342038475        3.2614866190       10.9980776837
  C         1.2462741432        3.5790737893        9.6359628947
  C         2.2251506199        3.0273231876        8.7719540155
  C         3.1317303671        2.0546396890        9.3613396072
  C         3.0889702750        1.7761426488       10.7131681078
  H         3.8755031682        1.1531700724       11.1849060215
  H         3.9648042202        1.5501963333        8.7511946735
  H         2.1840508412        3.2367129666        7.6996251120
  H         0.6412401756        4.4316916956        9.3754156438
  H         0.4557714519        3.7867651707       11.6096894475
  C         4.3903653011        3.0612327297       13.0164352640
  C         5.5189704198        3.3680216549       13.6936421972
  H         6.4114998555        3.7679117811       13.1978088966
  H         4.1840238548        3.4815815346       12.0028608087
  C         0.1620615189        0.2144896100       17.3724320907
  C         1.1179180186       -0.8053803042       17.6631532747
  C         1.3029336842       -1.1619062034       18.9758499120
  C         0.3713627266       -0.6757380548       19.9541047615
  C        -0.6170890001        0.2659943083       19.6606406138
  C        -0.6724170937        0.7901429658       18.4001856248
  H        -1.3551510340        1.5328778460       18.2107390629
  H        -1.3924112737        0.5915017280       20.3838729803
  H         0.5303893530       -1.0753295493       20.9865910535
  H         1.8422723744       -2.0146883811       19.2319175336
  H         1.6490102149       -1.1218448056       16.7579754575
  C        -2.0106351344       -0.8390019836       15.7940305255
  C        -3.1067545397       -1.3711772740       15.1076936720
  C        -3.0120843841       -1.3879002475       13.6937736420
  C        -1.9284047471       -0.8073348784       13.0169691123
  H        -1.7801097792       -0.9848237496       11.9606341772
  H        -3.7824384937       -1.9412504577       13.1698943333
  H        -3.9457717686       -1.7769721313       15.6637536934
  H        -1.9795124646       -0.8447849362       16.8560770580
  C         0.1887643372        0.1848667719       11.5261801231
  C         1.1588966086       -0.7522982469       11.0791480481
  C         1.1934240857       -1.1689298778        9.7302531953
  C         0.1655154670       -0.7459538156        8.9474117135
  C        -0.8235209571        0.1454731607        9.2998533817
  C        -0.7579975460        0.6732753889       10.5924134465
  H        -1.4503408987        1.4059720455       10.9338495462
  H        -1.6113344258        0.5805724989        8.7168158914
  H         0.1304118374       -1.2188114004        7.9314780545
  H         1.8794720721       -1.8410944181        9.3369372356
  H         1.8889016884       -1.1501994288       11.7869615590
  C        -2.3542322072        8.3933624913       14.9167107954
  C        -3.4367869512        9.0835942467       15.6000043327
  C        -4.5544945025        9.6144770083       14.9644475502
  C        -5.7146784725       10.1863239345       15.6490232434
  C        -6.7770864409       10.6307494221       14.9856350290
  C        -3.2626565881        9.4371339086       17.0669363477
  C        -2.3036382829       10.4132783753       17.3669339666
  C        -2.2098184204       11.0006847529       18.6470569451
  C        -2.9579003960       10.5754719137       19.7388691599
  C        -3.8770327433        9.5946958535       19.3886119057
  C        -4.1238117388        9.0741433129       18.1322296688
  H        -5.6326707282       10.2761779870       16.6804467644
  H        -7.5530310049       11.1691944039       15.5447768827
  H        -1.6301748388       10.7103167201       16.6196793951
  H        -1.4370789076       11.6793136308       18.8021905388
  H        -2.9511161536       11.0066753812       20.7476695977
  H        -4.6214746316        9.2923001958       20.1436738927
  H        -4.9055776293        8.3192034088       17.9404176246
  C        -2.4247230762        8.4270778012       13.4690646398
  C        -1.3448942428        7.7352871042       12.7051140239
  C        -0.3346683597        7.1501973250       13.4174196566
  C        -0.3259775342        7.0818258488       14.8236812339
  C        -1.4077135199        7.5691253565       15.5573719970
  C        -4.6181934402        9.6262698786       13.4814338356
  C        -3.5134392480        9.0690764816       12.7890812453
  C        -3.4108321671        9.3669851209       11.3117045074
  C        -2.7276451082       10.5448015618       10.8492907915
  C        -2.8247542579       10.9542736042        9.5293602355
  C        -3.4704705746       10.1074385044        8.6522288016
  C        -4.1538716878        9.0104690591        9.0859552988
  C        -4.1921701497        8.6424885407       10.4109319047
  H        -4.7650559598        7.8128766611       10.8649037716
  H        -4.6330849554        8.4511636881        8.2912614676
  H        -3.4825818403       10.3972313089        7.6107341667
  H        -2.3199428806       11.7941307812        9.2014493933
  H        -2.1746680411       11.0945691457       11.6106332472
  C        -5.6828823428       10.2678179267       12.8503636649
  C        -6.7940253975       10.7612163257       13.5846999182
  H        -7.6399489907       11.2628931186       13.1142384230
  H        -5.7786275814       10.4573955239       11.7655037322
  C        -1.4552245142        7.1751959984       17.0498803228
  C        -2.2235565562        6.0510349367       17.4698174792
  C        -2.1709097466        5.7008166902       18.8603989953
  C        -1.3491290424        6.3112450324       19.7536839560
  C        -0.5862680146        7.4327115309       19.2805126968
  C        -0.6621242081        7.8289308713       17.9590237173
  H        -0.1182430774        8.7848887579       17.6194669889
  H        -0.0413867335        8.1014259177       19.9926325880
  H        -1.4339815234        6.0364746505       20.8379976438
  H        -2.7833762542        4.8700640002       19.2064474801
  H        -2.8316255119        5.4321685212       16.8069336657
  C         0.7808707635        6.3726736101       15.5560496274
  C         1.8013439149        5.8858053569       14.8446553881
  C         1.7931173204        5.9316654286       13.4377971045
  C         0.7887825985        6.5307564940       12.7164367093
  H         0.9297579166        6.6894017574       11.6375643625
  H         2.7153136461        5.6942089935       12.8695088125
  H         2.6050722567        5.3324502685       15.2638206476
  H         0.8530534372        6.2934494828       16.6259304268
  C        -1.3228289271        7.4508343028       11.2215908375
  C        -1.8631602275        6.2326219666       10.8029574833
  C        -1.8179708931        5.8582004301        9.4572575560
  C        -1.0872780391        6.5759134002        8.5323637638
  C        -0.5242029535        7.7929727707        8.9304963782
  C        -0.6696483976        8.2587629197       10.2512533326
  H        -0.3396581289        9.2325718616       10.4825738658
  H         0.2413897806        8.3905878151        8.3322531197
  H        -1.0967262268        6.3544162081        7.4752262156
  H        -2.3642903597        4.9688518802        9.1323108663
  H        -2.5320223948        5.7819279184       11.4850676012
