140

  C         4.3396234499       -1.0587876456       14.0349725234
  C         5.3137776324       -0.2365828525       14.6308196497
  C         6.3594420472        0.3654637507       13.8568040833
  C         7.3564876373        1.1303138138       14.4738536222
  C         8.4152771565        1.6477932619       13.7775544072
  C         5.2110492623        0.1491623871       16.1007362099
  C         4.4059647302        1.2738967920       16.4841185716
  C         4.4190865633        1.8155749412       17.7417324586
  C         5.2760085183        1.2268761201       18.7494874573
  C         5.9041677262        0.0028288236       18.4417078738
  C         5.8802392533       -0.5075291736       17.1174952555
  H         7.4357182426        1.2197351376       15.5646771419
  H         9.2123980407        2.1517605089       14.3419171063
  H         3.8541140781        1.7729539199       15.6779940808
  H         3.7794576366        2.6402988791       18.0409001101
  H         5.4180463113        1.7583304471       19.6526295766
  H         6.6385737214       -0.3001369371       19.1654938460
  H         6.4892527281       -1.3547475934       16.8899646653
  C         4.3143225968       -1.1266713086       12.5236854597
  C         3.2008260620       -1.7852550534       11.8425998037
  C         2.1190948743       -2.2908485580       12.5837274838
  C         2.1193790341       -2.1476480294       14.0383402862
  C         3.2530933114       -1.6339697661       14.7700818452
  C         6.2735026499        0.3726558821       12.3982555264
  C         5.1721245455       -0.3361329148       11.8074287907
  C         5.1284893502       -0.0555680989       10.3505692876
  C         4.3327767482        0.9895408051        9.8842153895
  C         4.5979028003        1.5617404451        8.5808320414
  C         5.5792593300        1.0691221919        7.7320391488
  C         6.3693901131       -0.0627078973        8.1169263933
  C         6.0434145519       -0.5822328923        9.4017212132
  H         6.6562430098       -1.4004753669        9.7617798814
  H         7.0633795839       -0.4889231785        7.4246919078
  H         5.6656424123        1.5922358197        6.7674988232
  H         4.0223447131        2.4535670684        8.3399062257
  H         3.5515876308        1.3653138755       10.4801124713
  C         7.3749922749        1.0374961563       11.7374251716
  C         8.4536630097        1.5853403292       12.3514394763
  H         9.2176863911        2.1413039709       11.7629330107
  H         7.3269918419        1.0347920938       10.6671965739
  C         3.2922883043       -1.9199855999       16.1951732719
  C         4.1122459725       -2.9851066717       16.7285749329
  C         4.0822442544       -3.3034491703       18.0569335885
  C         3.3257931749       -2.5429738464       18.9716389024
  C         2.5477714604       -1.4716813453       18.4703757921
  C         2.5294211909       -1.2011373846       17.0870314750
  H         2.0470362785       -0.3321883485       16.6893180610
  H         2.0661244471       -0.9226505312       19.2123496067
  H         3.3859715978       -2.7776554821       20.0294095344
  H         4.7052065783       -4.1336231002       18.5102463107
  H         4.7451435907       -3.5848510109       16.0558506207
  C         0.9136253421       -2.6172959838       14.7285050781
  C        -0.1037390751       -3.1450530811       14.0330391126
  C        -0.1660283758       -3.2244866264       12.6322033438
  C         0.9690691053       -2.7980767925       11.8985216579
  H         0.9348585734       -2.8403311781       10.8288610289
  H        -1.0511149141       -3.6571380803       12.1728457992
  H        -0.9825260301       -3.4113906914       14.6040466779
  H         0.7929651054       -2.4352716586       15.8088882196
  C         3.1215274215       -2.1102500316       10.3891711327
  C         4.0857107721       -3.0485952562       10.0141987026
  C         3.9794469057       -3.6830740412        8.7637088411
  C         3.1309927482       -3.0959219145        7.7724294567
  C         2.3460712905       -2.0115053130        8.0886177639
  C         2.3801441445       -1.4714308280        9.4244816201
  H         1.8354657379       -0.5470642003        9.6559350411
  H         1.8244627098       -1.5124990360        7.2847541074
  H         3.1250908416       -3.5012905093        6.7407607379
  H         4.6896262674       -4.4373684539        8.3675494252
  H         4.7675366818       -3.5093558176       10.7224644250
  C         0.5224209368        6.3976919144       14.2845900409
  C        -0.3663281673        7.1478410210       15.0312532395
  C        -1.4673434309        7.8110230832       14.3359438608
  C        -2.3708184491        8.6466162917       15.0696950430
  C        -3.4450342614        9.2138217365       14.4520321994
  C        -0.2052420801        7.4291920686       16.5049690080
  C         0.5646009744        8.5549004516       16.8613082280
  C         0.5508724728        8.9995374773       18.1986161003
  C        -0.3129775945        8.3720010962       19.1260176511
  C        -1.1898005665        7.3353132388       18.7340557149
  C        -1.1544626888        6.8806707397       17.4542108836
  H        -2.1384875416        8.8307361699       16.1501986188
  H        -4.2139277778        9.8143839980       14.9711141386
  H         1.3001205663        8.9688789421       16.1868451169
  H         1.2366996614        9.8355703980       18.4492830955
  H        -0.3836617304        8.7703466262       20.1661391841
  H        -1.8394409646        6.8829494528       19.5140667940
  H        -1.7346704112        6.0770295228       17.0654921570
  C         0.4541817300        6.4139898257       12.8032235825
  C         1.5316813695        5.8064831549       12.1124785163
  C         2.6303238519        5.1757466257       12.6882592582
  C         2.5650717783        4.9913102903       14.0998830126
  C         1.5624365261        5.6039840946       14.8495516631
  C        -1.6380674687        7.7238135574       12.9028498961
  C        -0.6343507180        7.0839153694       12.1084917928
  C        -0.5368825640        7.5849313815       10.7454296655
  C         0.2537723351        8.6941167761       10.6167002752
  C         0.4607167432        9.2367766780        9.2870923180
  C        -0.2762210826        8.7263460646        8.2090577580
  C        -1.1159587716        7.6497796599        8.4196433810
  C        -1.2498857233        7.0672974328        9.6759327088
  H        -1.8688775288        6.1703908913        9.8160103570
  H        -1.7014680272        7.3180549490        7.4997763431
  H        -0.2152431744        9.1620911690        7.2198004156
  H         1.1564907456       10.0601343441        9.2323395432
  H         0.8409868514        9.0200295618       11.4523244431
  C        -2.7587357017        8.3550603209       12.2743534262
  C        -3.7378014738        8.9611802643       13.0704160639
  H        -4.6212612764        9.3740804537       12.5869068970
  H        -2.8844949591        8.3160825565       11.2126297671
  C         1.4991654086        5.1996912153       16.2718523667
  C         0.4891849929        4.2458876992       16.5544867553
  C         0.2335648072        3.9292000769       17.8703628801
  C         0.9897665547        4.3955343895       18.9069047874
  C         2.0530890394        5.2789261437       18.6215988248
  C         2.3291258772        5.6509176256       17.3121450730
  H         3.1150764706        6.3488996966       17.0607936985
  H         2.6371810592        5.7846230298       19.3903173927
  H         0.7617752946        4.0550895624       19.8862318941
  H        -0.5977888867        3.2542480524       18.0764899853
  H        -0.0843202525        3.8571776448       15.7585546157
  C         3.5604066024        4.0864358458       14.6916179404
  C         4.5909828685        3.5529901635       13.9788531236
  C         4.6516561672        3.7624535413       12.5731276940
  C         3.7140529364        4.4735634147       11.8894294149
  H         3.7909584809        4.6329946652       10.8517269880
  H         5.3778249414        3.1178808161       12.0082591150
  H         5.1319424196        2.7013183144       14.3809192388
  H         3.4612794818        3.8212307556       15.7427721683
  C         1.4423579247        5.5715438898       10.6512871516
  C         0.6245950657        4.4929620724       10.2429394542
  C         0.5340333049        4.0512302534        8.9107852784
  C         1.3344713359        4.6453039393        7.9641382019
  C         2.1340970161        5.7873728990        8.3087804339
  C         2.2289501502        6.2083509928        9.6961658706
  H         2.9678375662        6.9913776654        9.9172376213
  H         2.6152020145        6.3593655796        7.5017883938
  H         1.3855953890        4.2383344863        6.9643294336
  H        -0.1745293660        3.2321792241        8.6301818027
  H        -0.0115652189        4.0663407786       11.0512905669
