140

  C         3.4613150680        0.1706314070       14.1939552828
  C         4.4799856692        0.8281838737       15.0013822163
  C         5.5134420525        1.4719016046       14.3038210549
  C         6.5357434098        2.0640279005       15.0258388840
  C         7.5739154185        2.7174425781       14.4531222382
  C         4.3212585103        1.2228003923       16.4512732405
  C         3.5172678713        2.3538307620       16.8378644649
  C         3.4057778615        2.7090143558       18.1834563086
  C         4.1845198137        2.0725068772       19.1563798365
  C         5.0760160875        1.0746616382       18.8073762726
  C         5.0895542207        0.5932400895       17.4672188193
  H         6.3972079488        2.0992004978       16.1129368474
  H         8.2008913315        3.3045268295       15.0754344088
  H         2.9089543978        2.8140084667       16.0729308706
  H         2.7969076284        3.4988400082       18.5775023761
  H         4.2277055240        2.5020196241       20.1598606904
  H         5.6529185393        0.4726447894       19.4984617944
  H         5.8396311721       -0.1425482732       17.2287928466
  C         3.5456196281        0.1486376126       12.7853046551
  C         2.5209510785       -0.6155327185       12.0915450503
  C         1.3723427679       -1.1944530944       12.6909599143
  C         1.3116874677       -1.1213276649       14.1276565126
  C         2.4038599765       -0.5484152817       14.8282434553
  C         5.6475525075        1.4386967857       12.8432793966
  C         4.5591156490        0.8946525563       12.1379122841
  C         4.4682667730        1.2593910856       10.7061845024
  C         3.5404293776        2.1734929723       10.2618497298
  C         3.3452459406        2.4665210804        8.9136353326
  C         4.2712241976        1.9245007849        7.9749724367
  C         5.3199371495        1.0991213889        8.4300549819
  C         5.2470818747        0.6959248954        9.7134363479
  H         6.1155630454        0.0828775443        9.9632610290
  H         5.9208618453        0.5972291062        7.6688415742
  H         4.2226218458        2.1572887899        6.9188355109
  H         2.5721838993        3.1688895105        8.6600537812
  H         3.0064421397        2.7137128262       11.0158391371
  C         6.7823407557        2.0843710081       12.2329157900
  C         7.7289153670        2.5998205826       13.0579145042
  H         8.5207535320        3.1722325164       12.5872001349
  H         6.8567672040        2.1034764573       11.1655277496
  C         2.4225494098       -0.8588120486       16.2671303743
  C         3.0417954229       -2.0295009406       16.6955654727
  C         3.0944587408       -2.4198731000       18.0566451871
  C         2.3029596225       -1.7634513968       18.9821146978
  C         1.5228451129       -0.6062440401       18.5990185644
  C         1.6376462014       -0.1616959036       17.2379347561
  H         0.9016564440        0.6244958224       16.9118867862
  H         0.7765209783       -0.2118329989       19.2615996368
  H         2.2546850759       -2.0820017142       20.0718840825
  H         3.7762150297       -3.2319364166       18.2482675512
  H         3.5582125716       -2.6750270089       15.9864010021
  C         0.2859499433       -1.8445888144       14.7826204718
  C        -0.6222557111       -2.6059661236       14.1042462453
  C        -0.5828826794       -2.5609243871       12.7057472476
  C         0.3698453400       -1.8941348112       11.9431020813
  H         0.4354183030       -1.8377990951       10.8462399721
  H        -1.3871232619       -2.9835034422       12.1087391314
  H        -1.4278857094       -3.1802412986       14.5442918763
  H         0.2332267509       -1.8267096503       15.8484108026
  C         2.8190657596       -0.9931191315       10.6640993018
  C         3.8678188802       -1.8664693027       10.2968003709
  C         4.0971001797       -2.2807207204        8.9744335354
  C         3.2182803057       -1.8420429315        7.9646315559
  C         2.1130054421       -1.0519597369        8.3222173165
  C         1.9299125840       -0.6173525864        9.6710221714
  H         1.0622730193       -0.0059968269        9.7650667099
  H         1.3251802582       -0.7061747938        7.6300910995
  H         3.4707702267       -2.1336467285        6.9363615553
  H         4.9694241069       -2.9273226706        8.7894286293
  H         4.5531268648       -2.2511204978       11.0306599404
  C        -0.0364296235        7.3087154533       14.1036621877
  C        -1.1442553274        8.0054476174       14.7278061607
  C        -2.1244034480        8.6078247603       13.9288757128
  C        -3.3702767753        9.1639564791       14.5680582813
  C        -4.3884721021        9.7987966597       13.8970950078
  C        -1.0328232775        8.3573951264       16.1409810519
  C        -0.3381884392        9.5225600418       16.5121379485
  C         0.0322897651        9.8495768656       17.8446184071
  C        -0.6017187965        9.1923317719       18.8571942831
  C        -1.5225883914        8.1913382960       18.5585518866
  C        -1.6569483012        7.7238548473       17.2494221207
  H        -3.3097840767        9.1137964895       15.6580134819
  H        -5.3004251042       10.2144893039       14.3585087735
  H         0.0484889928       10.1859942756       15.7708182300
  H         0.7824734045       10.6281763098       18.0179986975
  H        -0.4540239718        9.3500327712       19.9175556500
  H        -2.1071144300        7.7967852674       19.3689675806
  H        -2.2905413446        6.8525970807       17.0785254153
  C        -0.0270344106        7.3197702616       12.5666708932
  C         0.8886756434        6.4933372997       11.9297279723
  C         1.8966764112        5.7838527477       12.6858091335
  C         1.8403797108        5.8320421150       14.1400464334
  C         0.7927497597        6.4748358706       14.8196588882
  C        -2.0579894313        8.7042401044       12.5156822881
  C        -0.9826126869        8.1301267903       11.8649673629
  C        -0.9369363914        8.3659509254       10.3669965682
  C        -0.0549047365        9.3240766231        9.8266887814
  C         0.0496106548        9.4742422337        8.4306758513
  C        -0.7764245448        8.7619549171        7.5998972352
  C        -1.6739977185        7.8157600047        8.1509424024
  C        -1.7456412345        7.6325215087        9.4947614181
  H        -2.4045531532        6.9077030042        9.9435168978
  H        -2.2651887348        7.2213588065        7.4009707139
  H        -0.6539581368        8.9928820478        6.5525356814
  H         0.8105848954       10.1374052861        8.0410166908
  H         0.4602697536        9.9612919508       10.5609265102
  C        -3.1247180574        9.3392036161       11.8851485311
  C        -4.2170121134        9.8974481534       12.4760048279
  H        -5.0620910017       10.1970721558       11.8374638809
  H        -3.0180688640        9.4538026688       10.7829082118
  C         0.7064885197        6.0018126509       16.2657305125
  C        -0.0348104582        4.8653394196       16.6511153230
  C        -0.0891216479        4.4850450805       18.0134706618
  C         0.6804954358        5.1685409941       18.9728518841
  C         1.5442337012        6.1463408009       18.5198727950
  C         1.5135194333        6.6286583126       17.1937226538
  H         2.0765585656        7.5109907813       16.9046214508
  H         2.1516817951        6.6930490294       19.2524609798
  H         0.7444797190        4.9351525100       20.0285565677
  H        -0.7952571454        3.7103677529       18.2671257340
  H        -0.6084599476        4.3457828597       15.8975317411
  C         2.9953883668        5.1663262182       14.7713787653
  C         4.0100236373        4.5590640652       14.1244426185
  C         4.0254855974        4.5583969210       12.7134605954
  C         3.0336076193        5.1623870003       12.0097705025
  H         3.0951122898        5.1919103973       10.9254190288
  H         4.8583652508        4.0213755908       12.2186562214
  H         4.8633147916        4.1980535654       14.6736755112
  H         3.1784802292        5.3222839204       15.8113795306
  C         0.8815252500        6.1820556792       10.4226053262
  C         0.0176861055        5.1704265007        9.8882751385
  C         0.1165361093        4.7643148100        8.5739975099
  C         1.1374779613        5.2949688762        7.7797835286
  C         2.0795582325        6.1982966138        8.3284891469
  C         1.9365924543        6.6262583396        9.6303702038
  H         2.5849794259        7.4369120300       10.0053970805
  H         2.9084856863        6.6389915643        7.7900638743
  H         1.2098551877        5.1485166082        6.7307918526
  H        -0.6214094839        4.1121559405        8.0971608708
  H        -0.7649484228        4.7917454288       10.5338922462
