140

  C         4.3256684884       -0.5316875594       14.0318549281
  C         5.3189722406        0.2325317975       14.6483324162
  C         6.3655915688        0.8434439394       13.8934841116
  C         7.4936490904        1.4844478070       14.5925582081
  C         8.5648191918        1.9926485174       13.9375494530
  C         5.3604119052        0.4962252449       16.1313007100
  C         4.7252458199        1.6655618543       16.5993089083
  C         4.8047662120        1.9645552731       17.9702453825
  C         5.5695676915        1.1937740913       18.8558684802
  C         6.2004045502        0.0426229212       18.3717212834
  C         6.1176743100       -0.3075834486       17.0124898167
  H         7.5320885742        1.4059439858       15.6785544225
  H         9.3870325047        2.3152949531       14.5638424237
  H         4.0833621778        2.2738967597       15.9387804753
  H         4.1559152455        2.8008947175       18.3477452771
  H         5.6217093917        1.5510469895       19.8694158770
  H         6.7444898367       -0.5356379340       19.0977702368
  H         6.6645624912       -1.2545285794       16.7526335180
  C         4.2692387845       -0.4771961383       12.5432737392
  C         3.1577054864       -1.1310589059       11.8954566795
  C         2.1512483228       -1.8060821306       12.7186795997
  C         2.2152104040       -1.7608534394       14.1951867299
  C         3.2816735945       -1.1750539887       14.8535844905
  C         6.3607996674        0.8905587960       12.4668147870
  C         5.3162967866        0.1810322630       11.8231993465
  C         5.1994581539        0.5072540319       10.3973313801
  C         4.7057752791        1.7872775207       10.0254807466
  C         4.9611580230        2.2398663531        8.6994379706
  C         5.6787071533        1.4281946049        7.7963369261
  C         6.2574729973        0.2468381870        8.2590103778
  C         5.9924468591       -0.2387939847        9.5147528710
  H         6.3651509648       -1.1987030550        9.7874730730
  H         6.8227494256       -0.4479871833        7.6183837422
  H         5.9156224165        1.8448009315        6.8052155156
  H         4.7027196890        3.2939609560        8.5502204814
  H         4.3374838376        2.5584347183       10.7362715674
  C         7.5212641289        1.6278122554       11.7916149637
  C         8.5967118883        2.0898543956       12.5310549238
  H         9.4015816122        2.6572621159       11.9761200590
  H         7.4650552658        1.6610466943       10.7153690035
  C         3.4863948869       -1.6291528787       16.3399126708
  C         4.1394164571       -2.8438740583       16.6284092337
  C         3.9778373766       -3.3610246409       17.9418338627
  C         3.2281763777       -2.6073192193       18.8414064668
  C         2.6193815014       -1.3407518264       18.5684850160
  C         2.6420778953       -0.9369870810       17.2449183650
  H         2.1370305722       -0.0393287534       16.8881959982
  H         2.0964265834       -0.8094762791       19.3512575593
  H         3.1635596431       -2.9649666538       19.8152862643
  H         4.4176989580       -4.3111781468       18.2441708397
  H         4.6710120333       -3.4551478797       15.9131052495
  C         1.2244363721       -2.5245212951       14.9266905026
  C         0.2740690209       -3.3347473680       14.2791179468
  C         0.2167821159       -3.3070305046       12.8594384001
  C         1.1039639924       -2.5529222581       12.1012199528
  H         0.9838032160       -2.5043724543       11.0139632839
  H        -0.4680982224       -4.0236767313       12.3733948378
  H        -0.4307406612       -3.9315628647       14.7534313092
  H         1.3076607595       -2.4819941073       16.0497490702
  C         3.0975874520       -1.4656234440       10.4001977538
  C         3.9742497876       -2.4750132584        9.8687042608
  C         4.0079130422       -2.6745471864        8.4597061546
  C         3.0438530669       -2.0615530387        7.6871413430
  C         2.1098416552       -1.1923856633        8.2304115777
  C         2.1316953553       -0.9020234781        9.5623818294
  H         1.4382219361       -0.1086766199        9.9098491374
  H         1.3671996253       -0.7312158781        7.5524805569
  H         3.0936430981       -2.1690414417        6.6095723072
  H         4.8083692917       -3.3158064143        8.0284284652
  H         4.6876362181       -3.0220664994       10.4831799388
  C         0.7503217826        6.6585289364       14.4039828166
  C        -0.2340428014        7.2815787563       15.1738989065
  C        -1.4351847384        7.7606645355       14.5423774385
  C        -2.4712896193        8.4838850465       15.2653838136
  C        -3.4997234602        9.1061687745       14.6443015567
  C        -0.1411012107        7.6848716795       16.5969951308
  C         0.6069808963        8.8008295492       16.9901435207
  C         0.4568028391        9.3942203889       18.2825097524
  C        -0.4165645783        8.8343002719       19.2073537745
  C        -1.1511728047        7.6780400861       18.8600771032
  C        -0.9860319088        7.0925960686       17.5880610143
  H        -2.5204940954        8.4006925108       16.3672617780
  H        -4.1915194159        9.5938166260       15.3363947884
  H         1.2591094813        9.3717831781       16.3021559947
  H         0.9903947190       10.3040835463       18.5255588784
  H        -0.4698189699        9.3120200151       20.1718714890
  H        -1.9747246869        7.2552411678       19.4451729582
  H        -1.5169860057        6.1406087007       17.3342774458
  C         0.6672415967        6.6078120704       12.9527692688
  C         1.7621319169        5.8737178359       12.2633810844
  C         2.9239482697        5.4593399809       12.9586197961
  C         2.9595819266        5.4649219303       14.4112485801
  C         1.8244823481        6.0049489353       15.0534452349
  C        -1.3840699698        7.8912396742       13.0859081457
  C        -0.3927335990        7.3159497847       12.2597451357
  C        -0.4090694098        7.7481112595       10.8031971372
  C         0.1963938988        8.9038747415       10.3359152433
  C        -0.0340181716        9.3313133199        8.9978997426
  C        -0.7828509032        8.5450096354        8.1380901681
  C        -1.4153046439        7.3991373327        8.6657703391
  C        -1.1825907052        6.9893795021        9.9535322437
  H        -1.7260185062        6.0896653619       10.2146244891
  H        -1.9992481299        6.7237829521        8.0378842798
  H        -0.8627877770        8.8242710423        7.1116489925
  H         0.5436567771       10.1460761094        8.6129585325
  H         0.9667682767        9.5065834873       10.8890755653
  C        -2.4666570679        8.6591390403       12.5076211874
  C        -3.4938903523        9.2414725831       13.2425288128
  H        -4.3181045273        9.7885927182       12.7966348122
  H        -2.5106684196        8.9502488335       11.4803622415
  C         1.7665346474        5.7528187279       16.5393940008
  C         1.0940639727        4.5945592737       16.9296588041
  C         1.0602627944        4.1928155762       18.2627662241
  C         1.7810890254        4.9524345960       19.2402543463
  C         2.6323862377        5.9532216384       18.8002047758
  C         2.6096457640        6.3793114798       17.4827379308
  H         3.0958088532        7.3246693401       17.3277534413
  H         3.1335372972        6.5965714387       19.5128665074
  H         1.8579458664        4.6166371253       20.2653445544
  H         0.5486094680        3.2970270215       18.5458996761
  H         0.5791330967        3.8980939897       16.2343115987
  C         4.0760396188        4.8708622280       15.1503042669
  C         5.1143899614        4.3943018453       14.4154235597
  C         5.1082228662        4.2719744004       13.0007820682
  C         4.0193615920        4.7689855772       12.3222687789
  H         4.1147947473        4.7525547838       11.2553898497
  H         5.9947434694        3.7988107365       12.4939729725
  H         5.9640337134        3.9485699363       14.9734472380
  H         3.9979137496        4.9338781291       16.2329600290
  C         1.7461424707        5.6578464772       10.8205344773
  C         0.8965238039        4.6697119837       10.2583998734
  C         0.9362035638        4.3418024934        8.9015697854
  C         1.7526298088        5.1338729623        8.0276404309
  C         2.5410212781        6.1847378941        8.5873645517
  C         2.5638378289        6.4038619508        9.9506886551
  H         3.1935670731        7.1711166603       10.4039218231
  H         3.0828995901        6.9614626911        8.0352537361
  H         1.8394390528        4.9996283998        6.9831566600
  H         0.2718460334        3.5487792211        8.6034392239
  H         0.2739152652        4.0094192197       10.8916498641
