140

  C        14.4881426153       -0.0330126916        1.1918150557
  C        15.5527828022        0.7202610786        1.8039175402
  C        16.6347685459        1.2485016023        1.1289873458
  C        17.8267331020        1.7507866999        1.7749114492
  C        18.8154786651        2.3453588233        1.0622877867
  C        15.4371519280        1.0881559217        3.2370245604
  C        14.6267605987        2.1630798081        3.5950762818
  C        14.4432441174        2.6016423464        4.9242724627
  C        15.2744628169        2.1114607254        5.9361280298
  C        16.1255291794        1.0676642744        5.5535287734
  C        16.1595639137        0.5087085534        4.3073118103
  H        17.9528354827        1.5563828800        2.8148331017
  H        19.7946525230        2.6171507050        1.5098021591
  H        14.1187050987        2.7262872473        2.8572749966
  H        13.6980425900        3.4177692150        5.1128456945
  H        15.1990311430        2.5812513911        6.9036853945
  H        16.8344218077        0.6863480037        6.3159500776
  H        16.9535387235       -0.1888432528        4.1238663309
  C        14.3447044028        0.0990403092       -0.2427429907
  C        13.3913867871       -0.7021628260       -0.9576961802
  C        12.3306370766       -1.2477321627       -0.2522039483
  C        12.4052887214       -1.3288491473        1.2233868965
  C        13.5357006644       -0.8485201112        1.9336989990
  C        16.4919798084        1.4164541705       -0.3093814097
  C        15.3992571485        0.8045565813       -0.9691686635
  C        15.2586411665        1.2128174963       -2.4699105456
  C        14.5095307873        2.3347744802       -2.7900636755
  C        14.5825733348        2.8969622429       -4.0890901079
  C        15.4447109734        2.3765782042       -5.0513820314
  C        16.1809725220        1.2517048651       -4.7644990927
  C        16.0556831597        0.6360845060       -3.5096601120
  H        16.4789838544       -0.3747314580       -3.3804217613
  H        16.7200302028        0.8149641491       -5.6284739259
  H        15.4976577894        2.8219106043       -6.0386985994
  H        13.8982241452        3.6482626640       -4.3616409945
  H        13.6934299006        2.7116854058       -2.2030342947
  C        17.5238838041        2.0982915273       -1.0299656437
  C        18.6735633247        2.4938194223       -0.3462421953
  H        19.4504225540        2.9025377845       -0.9692138606
  H        17.3742293498        2.2046315360       -2.1140348802
  C        13.6955531662       -1.0115465694        3.3676425357
  C        14.5441632401       -1.9893675727        3.9777458431
  C        14.3999445913       -2.3040616411        5.3689695562
  C        13.4654670860       -1.6399312976        6.1289136009
  C        12.6988311955       -0.6315793415        5.5416885007
  C        12.8731078733       -0.1917354117        4.2054725163
  H        12.2325077452        0.5130638773        3.6968965613
  H        11.9376496518       -0.1778771915        6.0982630153
  H        13.1545665980       -1.8305987435        7.1763923495
  H        14.8975214787       -3.0713093498        5.8800048402
  H        15.1283437876       -2.6241495140        3.3143322831
  C        11.4202114768       -2.0686844795        1.9722072771
  C        10.2951897261       -2.5571495148        1.3623305910
  C        10.1163651267       -2.2812907565       -0.0298521378
  C        11.0851041847       -1.6997621719       -0.8398902220
  H        10.8441960845       -1.5388056689       -1.9113111994
  H         9.1173690249       -2.6742510892       -0.4050846759
  H         9.4523568070       -2.9489007083        1.9881461438
  H        11.5989432009       -2.1460541613        3.0491169776
  C        13.4420483117       -0.9631426519       -2.4403461978
  C        14.2645268868       -2.0528084622       -2.8259866482
  C        14.1448246684       -2.5478341344       -4.1663881406
  C        13.2772751601       -1.9044491374       -5.0694773743
  C        12.5331298968       -0.8391264995       -4.6754795799
  C        12.5234749332       -0.4380433287       -3.3473210003
  H        11.8733949500        0.3991646640       -3.0795131190
  H        11.8090561558       -0.3809648738       -5.3474943548
  H        13.3042840904       -2.1247362979       -6.1536477112
  H        14.7432855647       -3.4047074133       -4.4949462173
  H        14.9879911828       -2.5781861799       -2.1880770826
  C        10.7110058423        7.2831028740        1.1219625616
  C         9.6600774342        8.0693443158        1.7549598277
  C         8.5910084400        8.5943967102        0.9634374320
  C         7.4171811580        9.1646090397        1.5032939405
  C         6.4336450419        9.7511163594        0.7563417047
  C         9.7845893836        8.3888779570        3.2459195161
  C        10.7368900707        9.2897990093        3.7412960373
  C        10.7686576936        9.7102413509        5.0819528695
  C         9.8654536571        9.1068131846        6.0350680378
  C         8.8527342564        8.2545674475        5.5324282308
  C         8.8147235468        7.9267994474        4.1644070239
  H         7.2125847221        9.0352054388        2.5478756846
  H         5.4475298498       10.0598286625        1.1482320723
  H        11.4976483499        9.5413146978        3.0423093585
  H        11.5598353697       10.2984408000        5.3957260739
  H         9.8835479274        9.4693544039        7.0710368456
  H         8.0204518300        7.8859071160        6.1178393188
  H         8.0067529698        7.3487459652        3.7738721374
  C        10.7838207570        7.3496079203       -0.3444902035
  C        11.8368110237        6.6279618842       -0.9938784973
  C        12.9378303525        6.0824558744       -0.2217760341
  C        12.8812440610        6.1546423330        1.2455054458
  C        11.7382015292        6.6318580777        1.9264208485
  C         8.7200525399        8.6262780655       -0.4553332718
  C         9.8582173987        8.1078478551       -1.0503021243
  C        10.1908757640        8.6556408561       -2.5235218536
  C        10.7552837330        9.9465233571       -2.6721878780
  C        10.6613168480       10.5378669813       -3.9267818234
  C        10.1606994831        9.8679365495       -5.0171950121
  C         9.6979631577        8.6108127585       -4.8988406244
  C         9.6116521546        8.0236178517       -3.6445287703
  H         9.1596831308        7.0291976121       -3.4895162790
  H         9.3216114620        8.0410609761       -5.7455766349
  H        10.1132298142       10.3996329932       -5.9276861653
  H        10.8985543313       11.6102815330       -3.9980076546
  H        11.0177435337       10.5069797331       -1.7914687157
  C         7.7600286431        9.4651411217       -1.1543538587
  C         6.6639816780       10.0322250359       -0.6291376893
  H         5.9111792816       10.5966745650       -1.2078653570
  H         7.9507965425        9.7012866310       -2.2420649130
  C        11.6936913315        6.2089308847        3.3802234508
  C        10.9439480950        5.1090726465        3.7607315270
  C        10.9541100206        4.6668812846        5.1271468184
  C        11.8607026032        5.2985795587        6.0066325434
  C        12.6517158163        6.3867853122        5.6414564539
  C        12.5370770458        6.8564391309        4.3181670610
  H        12.9795527287        7.7626585767        3.9332734059
  H        13.2639394408        6.9662810812        6.3238699726
  H        11.9447873554        4.9877128609        7.0714755190
  H        10.2953081238        3.8494182724        5.4517249431
  H        10.4040832464        4.4976436944        3.0427833565
  C        13.9552330454        5.5556215346        1.8891749987
  C        15.0179150407        5.0592667528        1.2463303191
  C        15.1124151379        5.0203044784       -0.1570867884
  C        14.0704981803        5.5010819279       -0.8350076288
  H        14.2173340290        5.5523208419       -1.9236702050
  H        15.9887017013        4.6211551790       -0.6113828019
  H        15.9149498454        4.7490205522        1.7536988064
  H        14.0122598804        5.5748519399        2.9638790519
  C        11.7560647121        6.3408749787       -2.4281003432
  C        11.0375751181        5.2356811342       -2.9622750413
  C        11.0773744510        4.8248531247       -4.3478758059
  C        11.9825949600        5.5591780008       -5.1308510292
  C        12.7381101270        6.6262607273       -4.6479748409
  C        12.5800159397        7.0686350576       -3.3262491376
  H        13.1825277934        7.9927662487       -3.0736291521
  H        13.4324155428        7.1047231467       -5.3381509227
  H        12.1214479495        5.2150692297       -6.1696259880
  H        10.5372284983        3.9461140541       -4.6406343119
  H        10.2862159044        4.6908360840       -2.3517791768
