140

  C         4.8486407061       -1.2151967026       14.2218157651
  C         5.9062629458       -0.5295846242       14.8498059617
  C         6.9999927649        0.0450633804       14.1625774134
  C         8.1122269671        0.6461905209       14.8462791773
  C         9.2181118912        1.2294655064       14.1655994017
  C         5.6802456223       -0.1012252876       16.2628172602
  C         4.9340786429        1.0689864802       16.4921330163
  C         4.7654819412        1.5813192767       17.7812319812
  C         5.3561770327        0.9509323545       18.8905008081
  C         6.3806788898       -0.0432529694       18.6464407392
  C         6.4574971221       -0.6265178526       17.3024024129
  H         8.1180738713        0.6707882861       15.8843357247
  H         9.9720662440        1.8061877085       14.7169421468
  H         4.4267363152        1.5675533417       15.5770545106
  H         4.0945896286        2.4016473728       17.9977091193
  H         5.2001941141        1.4640479843       19.8571248618
  H         6.9799637691       -0.3957119409       19.4755513462
  H         7.2612433888       -1.2745837168       17.0342587216
  C         4.8596951693       -1.2537211611       12.6992125684
  C         3.7822801941       -1.8666029090       12.0169926902
  C         2.7302616520       -2.3771217377       12.7223272850
  C         2.7542713695       -2.5097109231       14.2136744602
  C         3.8307398327       -1.9418541258       14.9249230008
  C         7.0488451290       -0.0173685727       12.6914272681
  C         5.8854776647       -0.5489738540       11.9826155551
  C         5.7493153662       -0.2340895962       10.5155687098
  C         5.0157874355        0.8975923926       10.0608216507
  C         5.1357618319        1.2794444824        8.6766351726
  C         5.9467187608        0.5806900297        7.7729660794
  C         6.6888751265       -0.5143089900        8.2607508170
  C         6.5222556039       -0.9182592444        9.6253062934
  H         7.0490121825       -1.8131452162        9.9031763741
  H         7.3988741270       -1.0059246219        7.6539899644
  H         6.1905480993        0.9685678948        6.7846302172
  H         4.5931393958        2.1637916023        8.3235607524
  H         4.3620338891        1.3936932905       10.7748402674
  C         8.2277596094        0.5330505447       12.0373646526
  C         9.2562892901        1.2022638341       12.7792341720
  H        10.1406327051        1.4130403404       12.2257228188
  H         8.2234136163        0.4684073972       10.9339811904
  C         3.9639129694       -2.2086000337       16.3888735640
  C         4.6004132486       -3.3809624150       16.8290631749
  C         4.4122367830       -3.8344227222       18.0881888829
  C         3.5652350749       -3.1481329461       18.9076520335
  C         2.8297219608       -2.0389964915       18.5509359925
  C         3.0742308461       -1.5431373159       17.2886109921
  H         2.4820374281       -0.7430937669       16.9698936102
  H         2.1312700705       -1.7393512185       19.2805671357
  H         3.2372131616       -3.6025015337       19.8642530595
  H         5.0200285237       -4.6787779795       18.4765878952
  H         5.1493573837       -4.0608574586       16.1114560309
  C         1.7237365973       -3.2902012241       14.8786343880
  C         0.6706815017       -3.8703691894       14.1283804739
  C         0.6898541038       -3.7437550725       12.7320064796
  C         1.6104960625       -2.9696700422       12.0404921103
  H         1.4622477489       -2.8869558511       10.9830072167
  H        -0.0596857784       -4.3186569523       12.1018443028
  H        -0.2285372029       -4.3146316987       14.5754543927
  H         1.7785635842       -3.5024838843       15.9624656803
  C         3.9447143270       -2.3009306202       10.5249674409
  C         4.6322733836       -3.5705226736       10.2732151190
  C         4.5632253116       -4.2130642714        9.0547224579
  C         3.8906564307       -3.6576692621        7.9468553504
  C         3.3098306570       -2.4278822877        8.1861350483
  C         3.2226179971       -1.7752922823        9.4296031171
  H         2.6438569998       -0.8625607698        9.5606990372
  H         2.7464650107       -2.0500982400        7.2882591299
  H         3.8632685073       -4.0645830362        6.9343923943
  H         5.2068986127       -5.1445338460        9.0474808232
  H         5.1158844048       -4.0914788872       11.0897101736
  C         1.0741590917        5.8792881021       14.0108050685
  C         0.0757904502        6.6997763842       14.7105809094
  C        -1.0113307635        7.2595030170       13.9689694073
  C        -2.0349441383        7.8751937974       14.7168157424
  C        -3.0928130699        8.4794559133       14.0566862510
  C         0.1468458219        7.1254790983       16.1451530640
  C         1.0065060517        8.1042555548       16.5807856648
  C         0.9105187901        8.5406122920       17.8861580044
  C        -0.0063939960        7.8908356033       18.7751074480
  C        -0.9468235000        6.9910234543       18.2825312496
  C        -0.8298407914        6.6096932965       17.0221653783
  H        -2.0486059644        7.7238724675       15.7929650784
  H        -3.8754597063        8.9375838424       14.7048018931
  H         1.6677452845        8.6083754609       15.8398656569
  H         1.5650937283        9.2423116142       18.3626117573
  H        -0.0334128243        8.1876179833       19.8796614359
  H        -1.7173169733        6.4442069228       18.8825973618
  H        -1.5033607972        5.8479865742       16.6903551358
  C         1.0218700425        5.9877289774       12.5201124283
  C         2.1079457038        5.3649670463       11.7612511461
  C         3.2039193390        4.7206294634       12.4333467978
  C         3.2525591553        4.7510314392       13.8869241639
  C         2.1384608087        5.2189562014       14.6826099660
  C        -1.0079803439        7.3421522652       12.5743461389
  C         0.0213562269        6.7514355073       11.8041777027
  C         0.0776818675        7.1086877062       10.3847944579
  C         0.9762140553        8.0720634317        9.9401238292
  C         1.0672115263        8.3591019952        8.5940265496
  C         0.1951595285        7.8029209515        7.6603729133
  C        -0.6729883591        6.8325294674        8.1244668391
  C        -0.6815796093        6.4091929223        9.4288904401
  H        -1.3192659346        5.5889015929        9.8116009302
  H        -1.2768911201        6.2792655668        7.4321134912
  H         0.3018041591        8.0735249874        6.5895000058
  H         1.6452635366        9.2053577434        8.2476913540
  H         1.5515689713        8.5509147428       10.6903258950
  C        -2.1487920909        7.9364666929       11.9255684502
  C        -3.1899454406        8.4075603740       12.6441115055
  H        -3.9632104987        8.9748833647       12.1340840416
  H        -2.2800374441        7.9939914334       10.8417023464
  C         2.0457417126        4.9509425204       16.1013619682
  C         1.0999267739        4.0095270288       16.6042979072
  C         1.1496596327        3.5564955873       17.9599296101
  C         2.1146445779        4.0483159929       18.8610838210
  C         3.0310922589        5.0369420639       18.3299855586
  C         2.9945283810        5.4571956004       17.0372833070
  H         3.7356626240        6.1495652373       16.7167318874
  H         3.8791758028        5.3956348975       18.8874389776
  H         2.2901435194        3.7156360779       19.8859771944
  H         0.4051253965        2.8506446343       18.2431453033
  H         0.3480238942        3.5732436799       15.9435370679
  C         4.3018834183        4.0281721901       14.4904342484
  C         5.3044251205        3.4682140684       13.8159974654
  C         5.3008755764        3.4699134804       12.4132072276
  C         4.3038845216        4.0825510623       11.7766334931
  H         4.2301667267        3.9814777996       10.6566007806
  H         6.1239133307        2.9492299510       11.8969293874
  H         6.1145186628        2.9498917328       14.3343197911
  H         4.2835599987        3.9517099575       15.5552302791
  C         2.0467314673        4.9932970724       10.3691458185
  C         1.1848985644        3.9996952225        9.9110314630
  C         1.1825447060        3.4790883262        8.5889769993
  C         2.1592396315        3.9286243904        7.7220293373
  C         3.1565931001        4.8246059516        8.1357556814
  C         3.0442985222        5.4283508587        9.4004320626
  H         3.7827563731        6.1883284418        9.5970424825
  H         4.0197604797        5.1863407981        7.4956654789
  H         2.0935874454        3.5028728795        6.7172780037
  H         0.4671154391        2.7040632349        8.2145346278
  H         0.3368924359        3.7138111252       10.6142995743
