140

  C         4.8285320905       -0.3126121831       15.7023425480
  C         5.8078200101        0.4302338124       16.3897839322
  C         6.9111808858        1.0040529293       15.6653014485
  C         7.9133903911        1.7764403499       16.3222518242
  C         8.8018308180        2.5262790955       15.5871765294
  C         5.7115850707        0.7162397410       17.8406190843
  C         4.9847707962        1.8901663652       18.2085180084
  C         5.0864219908        2.4542650185       19.4397222246
  C         5.8742293840        1.8450780686       20.4675908183
  C         6.6126241985        0.7113164001       20.0703400238
  C         6.5059197692        0.0971266078       18.7587125971
  H         7.9264791053        1.9233727113       17.4016904818
  H         9.4523344249        3.2176242390       16.1743641554
  H         4.3415492862        2.2094829518       17.4790904157
  H         4.5136222911        3.3631376098       19.6839782215
  H         6.0913831098        2.3155699251       21.4676029247
  H         7.1109550139        0.1810779233       20.8805489296
  H         7.0542484725       -0.8035666875       18.5040094884
  C         4.8454429082       -0.3521699172       14.2269069018
  C         3.7789979789       -0.9482812008       13.5463080400
  C         2.6246313194       -1.3478773720       14.2163372360
  C         2.5659925884       -1.3561447261       15.6595332223
  C         3.6863885890       -0.9099743918       16.3977977241
  C         7.0004846646        0.9456365559       14.2242005973
  C         5.8644461361        0.3770992562       13.4987882155
  C         5.7129813315        0.8366088984       12.0917882882
  C         4.7919050479        1.8742477969       11.9153173374
  C         4.6567685156        2.5222047358       10.6902836850
  C         5.4942377050        2.1960360364        9.6224510246
  C         6.4670427585        1.2070325868        9.8189266830
  C         6.5768640419        0.4931986426       11.0338393747
  H         7.3421671002       -0.2692978143       11.2113947611
  H         7.2108024628        0.9042218045        9.0844978366
  H         5.3360168076        2.6858555549        8.6967017617
  H         3.8277736240        3.1697562312       10.4563194429
  H         4.2209443406        2.2413139904       12.7239866119
  C         8.0924654973        1.5686860639       13.5510007278
  C         8.9361010148        2.4577066861       14.2205881907
  H         9.7491891486        2.9119366065       13.7195468955
  H         8.0510770394        1.5672232837       12.4770954247
  C         3.7304959361       -1.2746055782       17.8157633375
  C         4.7480697932       -2.1655433832       18.2469246253
  C         5.0642795346       -2.4391752524       19.5473728001
  C         4.1703855491       -1.9245815342       20.4909535843
  C         3.1222413162       -1.0778356435       20.0558845698
  C         2.9451271973       -0.7223219393       18.7614945202
  H         2.0924239406       -0.0840121803       18.4859759474
  H         2.2935393428       -0.7657551830       20.7013695191
  H         4.1518803594       -2.0749949498       21.5682045281
  H         5.9985839368       -2.9455658264       19.8485700181
  H         5.3442653615       -2.5678645355       17.4488544761
  C         1.4286508911       -1.9347290940       16.2925529661
  C         0.4131095764       -2.5212947136       15.5669276536
  C         0.4405881054       -2.5266700284       14.1274557069
  C         1.5188577413       -1.9578128364       13.5397564227
  H         1.5441524158       -2.0572462151       12.4326497728
  H        -0.3251234752       -3.0344985159       13.5958922410
  H        -0.4807393785       -2.9471991176       16.0846828542
  H         1.3816422558       -2.0943074980       17.4042381878
  C         3.8723010871       -1.3927032668       12.1323260039
  C         4.8284607940       -2.3402655981       11.7205142965
  C         5.0091693502       -2.6527652001       10.3466261789
  C         4.1482107396       -2.1020004798        9.3078687350
  C         3.1802006032       -1.1870042889        9.7583384113
  C         3.0717714886       -0.8017396192       11.1280084466
  H         2.4328255027       -0.0460260739       11.4702377305
  H         2.5334304954       -0.6702857174        9.0989914080
  H         4.4014925674       -2.4275897293        8.2725645257
  H         5.6766823759       -3.4709496395       10.0995830435
  H         5.5509860684       -2.6537959938       12.5019836875
  C         1.2213178057        7.1718742609       16.1631824624
  C         0.2206793801        7.8139192074       16.9482509362
  C        -0.9112920579        8.3059380467       16.1923993976
  C        -1.8712152377        9.0328918088       16.9123351287
  C        -2.9298537007        9.5878809212       16.3226628351
  C         0.3958046048        8.3126990960       18.3539269622
  C         1.1576177665        9.4059628927       18.7539614996
  C         1.0757331979        9.8604667132       20.1025888406
  C         0.1455753908        9.2780756613       20.9724326364
  C        -0.6072874788        8.1190305773       20.6024270542
  C        -0.4381462981        7.6827611257       19.2554290852
  H        -1.9183823802        9.1081868376       17.9929243513
  H        -3.6391060590       10.1923751007       16.8236759625
  H         1.8156521686        9.8188538848       18.0459881867
  H         1.7170427494       10.6370940182       20.4976619979
  H         0.0589108415        9.6553291540       21.9823832746
  H        -1.3775824308        7.6245813385       21.2366675004
  H        -1.0911154860        6.8523648143       18.8585561152
  C         1.2776285311        7.2345854287       14.6388887902
  C         2.2019030226        6.3908256481       13.9500289716
  C         3.2951962491        5.8268845856       14.6856572498
  C         3.3200451811        5.7614775708       16.1428435494
  C         2.1391405715        6.2338452169       16.8474263887
  C        -0.9033053188        8.3551644571       14.7416770559
  C         0.1760947830        7.8382362893       14.0144161896
  C         0.2535543431        8.2529707160       12.5723254322
  C         0.9182542352        9.4263850547       12.1918223164
  C         0.8066541064        9.9371496779       10.8850894764
  C         0.0770858056        9.2648628903        9.9078419923
  C        -0.6682837073        8.1320260687       10.2593010572
  C        -0.5587703911        7.5827908202       11.5685936043
  H        -1.0621901290        6.6427066719       11.8506042353
  H        -1.3809122104        7.7736561076        9.5608637473
  H        -0.0811600969        9.6424099777        8.8249591739
  H         1.3953763535       10.8304734459       10.6572311263
  H         1.4670718699        9.9237736910       12.9994509522
  C        -2.0084673542        9.0695003151       14.0976873692
  C        -3.0011386819        9.6652997465       14.8804195393
  H        -3.8634430712       10.1912601101       14.3810343402
  H        -2.0061828485        8.9108656097       13.0054365256
  C         1.9511801845        5.7893953312       18.2902397724
  C         0.9614719782        4.8103985259       18.6574516048
  C         0.9137684748        4.3337645243       19.9554450181
  C         1.8030118845        4.8919841074       20.9408358110
  C         2.7060727341        5.8667997765       20.5927702060
  C         2.7650494719        6.3418904700       19.2991264249
  H         3.4785105005        7.0990470901       19.1254677387
  H         3.4268257864        6.3121046810       21.2863887794
  H         1.7058394992        4.4403873874       21.9255951171
  H         0.2097261089        3.4874164171       20.1021288987
  H         0.3272207514        4.4411165505       17.8220566571
  C         4.4224431189        5.1368741982       16.8648595434
  C         5.3969834753        4.4386832255       16.1766062563
  C         5.3493775999        4.5082621950       14.7260482179
  C         4.3342165816        5.1330195799       14.0269633010
  H         4.3508916719        5.0534831719       12.9148350910
  H         6.2252792024        4.0837068220       14.2163474403
  H         6.2772610624        4.0356954036       16.6930617742
  H         4.4317908128        5.1291899204       17.9502880116
  C         2.0169655356        6.0180051276       12.5018834020
  C         1.3059710139        4.8837825344       12.1303569774
  C         1.1622063717        4.6090601667       10.7537709202
  C         1.6292657656        5.5362393009        9.8062168220
  C         2.4478243547        6.6877013789       10.1918376675
  C         2.5756249454        6.8680245779       11.5487968763
  H         3.1436479883        7.7361788051       11.8971871571
  H         2.7892834229        7.4684943233        9.5371535661
  H         1.4983749335        5.3365761851        8.7624825618
  H         0.5825224250        3.7369379796       10.5005172038
  H         0.8897202397        4.2540213720       12.8906627010
