140

  C        15.0635374372        0.0564419980        2.4051060994
  C        16.1182506896        0.7608566871        3.1737169340
  C        17.2438117065        1.2523062948        2.4327227950
  C        18.4134010520        1.9377045150        2.9710419400
  C        19.4936567152        2.4173879856        2.2313265299
  C        16.0238264470        1.1534046315        4.5708061713
  C        14.9464275583        1.9659228371        4.9707813574
  C        14.7913067313        2.1688405094        6.4303330453
  C        15.7399953409        1.5416988787        7.3074502579
  C        16.8802152781        0.8718373095        6.8090330347
  C        16.9511046003        0.6102436412        5.4843517295
  H        18.3704483176        2.0765135471        4.0033509274
  H        20.3618324212        2.9308680758        2.6619839162
  H        14.2194840809        2.4498115188        4.2868371724
  H        13.9195864861        2.7468223035        6.7845949033
  H        15.5958340508        1.7179706437        8.3597554221
  H        17.6819332307        0.4036524114        7.4302954967
  H        17.6933904173       -0.0472243531        5.0299011825
  C        15.0242581555        0.0379040520        0.9459074947
  C        13.8991683275       -0.5217573378        0.3062883447
  C        12.7262886904       -0.8852069925        0.9612350849
  C        12.8362323512       -1.0344746006        2.4122184564
  C        13.9656437231       -0.5562950542        3.1193378997
  C        17.2449283027        1.1992115743        0.9654951002
  C        16.0914658458        0.6457651492        0.2802267930
  C        15.9604039199        0.9578933813       -1.1593517107
  C        15.1788828593        2.0425393536       -1.5277910287
  C        15.2289136013        2.4580919912       -2.8599322898
  C        15.9503098178        1.7747170109       -3.8450692599
  C        16.7487086222        0.6146969094       -3.4305561819
  C        16.7850647490        0.2916413261       -2.0661504129
  H        17.2472984384       -0.5985540145       -1.7260830359
  H        17.4201643311        0.1558985726       -4.1244326147
  H        15.9134091757        2.0506782984       -4.9255366585
  H        14.6685707815        3.3581873963       -3.0878921918
  H        14.6634287541        2.5607062362       -0.7368036677
  C        18.3700226787        1.7123152437        0.2510316673
  C        19.5169866771        2.2504853816        0.8640773965
  H        20.2400783783        2.6938819599        0.1879586154
  H        18.3326697919        1.5468360663       -0.8215332074
  C        14.0984097802       -1.0289313123        4.5460618877
  C        14.9288061820       -2.1386288309        4.7943614192
  C        14.9009448600       -2.9235288302        5.9443862341
  C        14.1675332143       -2.4900756900        7.0479697729
  C        13.3331843309       -1.3839936461        6.8437953487
  C        13.3243649919       -0.6578991927        5.6340263909
  H        12.6316316165        0.2484992275        5.6152375781
  H        12.6122694191       -0.9703491141        7.5648472752
  H        13.9623488293       -3.0673157537        8.0085405425
  H        15.3976713151       -3.9558743488        5.8968331370
  H        15.6301075609       -2.4118380769        4.0586569211
  C        11.7455386310       -1.7956678416        2.9350261774
  C        10.7375038766       -2.3798198969        2.2198768947
  C        10.6527341756       -2.1495097636        0.8080972018
  C        11.6929882360       -1.5186340885        0.1849535414
  H        11.8977756012       -1.3949573205       -0.9020520818
  H         9.9789604639       -2.7965920873        0.2390869572
  H        10.0837265053       -3.1176362454        2.6548300215
  H        11.7565720568       -1.9913667208        4.0109530985
  C        14.0846914092       -1.0033019364       -1.1488341720
  C        14.9367058512       -2.1415942020       -1.3704048844
  C        15.1789809901       -2.5935654210       -2.7112566939
  C        14.5316568522       -2.0714866328       -3.7801429714
  C        13.6281301405       -1.0193282567       -3.5713045308
  C        13.4090259400       -0.4815390506       -2.2858539847
  H        12.6727003536        0.2994961140       -2.1354753586
  H        13.0762564692       -0.7470170686       -4.4202077536
  H        14.7726352436       -2.4994339896       -4.7315263792
  H        15.9236591903       -3.3552370275       -2.8997662978
  H        15.5012804535       -2.5968530952       -0.5588655528
  C        11.6308882714        7.3153029554        2.1996708653
  C        10.5811350600        7.9803848560        2.8880184552
  C         9.5360682848        8.5362395896        2.1528170946
  C         8.3389275366        9.0905376128        2.7860531959
  C         7.2390732883        9.5988843066        2.1342355755
  C        10.6397856786        8.3847355849        4.3816004260
  C        11.4291145660        9.4489079599        4.8440607203
  C        11.4790886704        9.7187047812        6.2353617073
  C        10.7505998800        9.0250546380        7.1777085571
  C         9.9733165040        7.9004688588        6.7586444372
  C         9.8961477422        7.6794922689        5.3977928524
  H         8.3453648971        9.1668535341        3.8746511661
  H         6.3811643936       10.0834246605        2.6270317324
  H        12.1261631732        9.9773777661        4.1652013652
  H        12.1476948650       10.5514786768        6.3595881855
  H        10.9773853911        9.2098456803        8.2574551897
  H         9.2638535765        7.3656868365        7.3593954280
  H         9.3690637283        6.8198155593        4.9914736540
  C        11.6320063387        7.3437409508        0.7530848240
  C        12.6450661959        6.6132116485        0.0998844900
  C        13.6970431836        5.9194896978        0.7150590173
  C        13.6469333122        5.9168168551        2.1280397549
  C        12.5869088401        6.5187515767        2.8796018717
  C         9.5513081932        8.5941292074        0.6902774086
  C        10.6617154822        8.0144235847        0.0159721013
  C        10.6541300697        8.3256040936       -1.4816072523
  C        11.6080450376        9.2224321919       -1.9520667070
  C        11.6128173702        9.6510892178       -3.2472604900
  C        10.6513851858        9.2579337855       -4.1449835471
  C         9.7020753537        8.3236306417       -3.6902528952
  C         9.6922182070        7.8758606803       -2.3751355401
  H         8.9144103477        7.1344861602       -2.1863296114
  H         8.9688646572        8.0484686639       -4.3870329539
  H        10.6069262845        9.7667673543       -5.0778634073
  H        12.4312507676       10.3045036210       -3.5768097355
  H        12.3681585147        9.3766080689       -1.2348102732
  C         8.4205996992        9.2039919125        0.0031512569
  C         7.3437161816        9.6572813390        0.7192699483
  H         6.3673201494        9.8379447418        0.2121589370
  H         8.3898198577        9.1621820640       -1.0289690456
  C        12.5696852980        6.2443835534        4.3166071624
  C        11.7686762334        5.1815815640        4.7520547635
  C        11.8390197232        4.7800225894        6.0747688904
  C        12.7873437076        5.3267127432        6.9089612017
  C        13.5070709006        6.4293103893        6.4691008688
  C        13.4079993753        6.9230520585        5.1830877003
  H        13.9793916781        7.7897563979        4.8644635154
  H        14.1961306587        6.9875237790        7.0999560044
  H        13.0393509766        4.8944711158        7.9003617299
  H        11.1188128100        4.0852660498        6.4916252723
  H        11.0622955295        4.8194962962        4.0388983146
  C        14.5879244677        5.1144507820        2.8731009269
  C        15.6064067761        4.4130955722        2.2291819014
  C        15.6307930329        4.4782215611        0.7881526641
  C        14.7230348509        5.1946369425        0.0854662134
  H        14.7520637403        5.1813222784       -0.9789398145
  H        16.2431839796        3.7866912181        0.2107144393
  H        16.3717998573        3.8738330205        2.8570916785
  H        14.5526675683        4.9235890795        3.9246601047
  C        12.6593304706        6.2894132465       -1.3598218307
  C        11.8966522082        5.2736308340       -1.9092335042
  C        11.9765863260        4.8909856590       -3.2522430660
  C        12.9005780243        5.4900144939       -4.1144592076
  C        13.7792748677        6.4592638682       -3.5377739708
  C        13.6832448007        6.7967634881       -2.1761348543
  H        14.5059245063        7.4553690878       -1.6947674874
  H        14.4971189614        6.9677172867       -4.1588869723
  H        12.9093771698        5.2386683732       -5.1372405541
  H        11.2782816765        4.0846580802       -3.5363184449
  H        11.1565301484        4.7921642188       -1.3180207571
