140

  C         1.5654155179        1.1520399682       14.8964015941
  C         2.6635698850        1.8605997556       15.5672737083
  C         3.7914369651        2.3596769012       14.8313465690
  C         4.8079582061        3.1329480853       15.4832623610
  C         5.8819334400        3.6343794787       14.7739317880
  C         2.5589307048        2.0391829683       17.0294185243
  C         1.8115708737        3.1923752405       17.3651522939
  C         1.7853746973        3.7677564602       18.6205111068
  C         2.5472790737        3.1682482958       19.6414136445
  C         3.3772932385        2.0673320807       19.3379909719
  C         3.3246957722        1.5087856732       18.0573255125
  H         4.6421901302        3.2277738155       16.5812420555
  H         6.7699122635        4.0527283194       15.2675926733
  H         1.1840658622        3.6226003568       16.5702696887
  H         1.2750541015        4.7191004824       18.8404483054
  H         2.6930404598        3.5918871826       20.6353004578
  H         3.9722876173        1.6557142789       20.0963063233
  H         4.0758773924        0.8022067020       17.7317964389
  C         1.5185354094        1.1832252567       13.4014191269
  C         0.5261351567        0.5713396442       12.7199987561
  C        -0.5286928657       -0.0611644914       13.4548195422
  C        -0.6164378054        0.0454685856       14.9549894398
  C         0.5319512862        0.5316426746       15.6635502990
  C         3.6584145046        2.3813814658       13.4005265339
  C         2.5076631843        1.9466165300       12.7360581174
  C         2.4941566043        2.4125257772       11.3266145116
  C         1.7587766193        3.4823814538       10.8648707499
  C         1.8887976680        3.8647385505        9.5116806081
  C         2.5515263144        3.0563176387        8.5639891469
  C         3.1531357924        1.9143307946        9.0017644322
  C         3.2327925601        1.6382010955       10.3936887145
  H         3.7687845072        0.7167848950       10.6215208401
  H         3.7403177000        1.2695674011        8.3061107575
  H         2.4341204841        3.3406124876        7.4939362223
  H         1.3305121365        4.7797754159        9.1913318128
  H         1.1296126002        4.0963956459       11.5618238599
  C         4.8167659974        2.9298592971       12.6713425638
  C         5.8764000230        3.4497278536       13.3361980665
  H         6.7299170042        3.8777252011       12.7933384545
  H         4.8910980380        2.9880036347       11.5884437067
  C         0.6397480700        0.1347047069       17.1607637116
  C         1.3452279191       -1.0241202873       17.4366527574
  C         1.3850281284       -1.6607966579       18.6702597583
  C         0.6207041847       -1.1016667516       19.6874417528
  C        -0.2857887676       -0.0021224265       19.4157247695
  C        -0.1902674061        0.6889029174       18.2109001708
  H        -0.8133170261        1.5469766119       17.8443564896
  H        -0.9040078849        0.2328295124       20.2838868621
  H         0.5307851601       -1.4112528058       20.7269603800
  H         2.1146705351       -2.4712468233       18.8874161297
  H         2.0968707346       -1.3209271441       16.6850615190
  C        -1.6964770838       -0.6604206405       15.5588421208
  C        -2.6107571130       -1.4319825542       14.8753245392
  C        -2.5655047675       -1.5088043404       13.4903043506
  C        -1.6009414306       -0.7778280066       12.8141785022
  H        -1.5912817500       -0.9756057544       11.7529556295
  H        -3.3051890200       -2.1087762812       12.9267620665
  H        -3.3272903723       -2.0274629035       15.4945189084
  H        -1.7095004157       -0.6896171257       16.6074242202
  C         0.4838042023        0.2953248593       11.2163136630
  C         1.0137163316       -0.8885812089       10.7723106493
  C         0.8000912711       -1.1185980006        9.4239621462
  C         0.1334314217       -0.2158650571        8.5973348010
  C        -0.3846861562        0.9759788288        9.0682432750
  C        -0.1731216129        1.2404816595       10.4090147933
  H        -0.6185032769        2.1458707731       10.7674271919
  H        -0.9681658648        1.5686499814        8.3701514709
  H        -0.1248458175       -0.4475037256        7.5350336011
  H         1.2127199675       -2.0307201650        9.0412465300
  H         1.5574250187       -1.6406564200       11.4082729171
  C        -2.1055818410        8.4649576203       15.0098842454
  C        -3.1862534759        9.0909967492       15.6984185537
  C        -4.3873557271        9.5266277090       15.0048150434
  C        -5.4135950226       10.2186076854       15.6113873009
  C        -6.3815060727       10.8937228076       14.8319228203
  C        -3.0413704364        9.5205110633       17.1204221559
  C        -2.1528481513       10.5462967271       17.6112529028
  C        -2.0446692270       10.9464654186       18.9697505190
  C        -2.9296662375       10.3840403376       19.8746996931
  C        -3.8821597419        9.4634134377       19.4371539241
  C        -3.8440660790        8.9407872582       18.1235745017
  H        -5.4703552441       10.1980679120       16.7135876735
  H        -7.1363122264       11.4959163523       15.3437933555
  H        -1.4933783905       11.0743916577       16.8979088539
  H        -1.3841215508       11.6838041481       19.2659436605
  H        -3.0685217354       10.8669106239       20.8668322945
  H        -4.4962683556        8.8862432566       20.1233791745
  H        -4.5245849145        8.1067126434       17.9085870331
  C        -2.1253275815        8.3337152232       13.5444210439
  C        -1.0231349186        7.7093576108       12.9343148574
  C         0.0956443797        7.2355859284       13.6686844226
  C         0.0806187853        7.2557799122       15.1247297497
  C        -0.9566518954        7.8471582358       15.7754757084
  C        -4.3519111671        9.4528281315       13.5234932929
  C        -3.2203346397        8.9964230933       12.9039245477
  C        -3.2018709088        9.1730833603       11.4112350204
  C        -2.4535711638       10.2832178527       10.9127204851
  C        -2.4513266906       10.6234192362        9.5361989587
  C        -3.1938669170        9.8696014217        8.6075484756
  C        -3.9219687456        8.7674736729        9.1226586218
  C        -3.9819123194        8.4824591972       10.4937317784
  H        -4.6382360509        7.6398918510       10.7234828968
  H        -4.4660095202        8.0809292306        8.4427763556
  H        -3.1838321952       10.1271868704        7.5617600248
  H        -1.8092837826       11.4411426468        9.2396820331
  H        -1.8310688199       10.8939773158       11.5952877473
  C        -5.4278483652       10.0610756907       12.7743244814
  C        -6.3867292073       10.7900814504       13.3965132592
  H        -7.1264134889       11.2953519480       12.7897104892
  H        -5.3621186633       10.0087976120       11.6777789719
  C        -1.1836439373        7.4540630532       17.2154056654
  C        -2.1290744825        6.3669756220       17.3749409114
  C        -2.3291992763        5.7689637086       18.6111651368
  C        -1.4597865721        6.0809857711       19.7085034695
  C        -0.4608895770        6.9806446271       19.5264043214
  C        -0.3330157808        7.7122865635       18.3300484877
  H         0.3229053777        8.5509745987       18.2960851810
  H         0.1260454412        7.2346175504       20.4446227838
  H        -1.6776966590        5.5918097892       20.6253862525
  H        -3.2886508732        5.2246591993       18.8187453258
  H        -2.7192043523        6.0596359031       16.5004783216
  C         1.1119746754        6.6314256056       15.8809635462
  C         2.1028383385        5.9275611087       15.3109278892
  C         2.1667194790        5.8857233553       13.8442629638
  C         1.2090606960        6.5370365507       13.1130381648
  H         1.2249829874        6.4792002665       11.9952885144
  H         2.9799107690        5.3069194754       13.4023389649
  H         2.8451280595        5.3450291260       15.8983461000
  H         1.0944453115        6.6122428022       16.9523834811
  C        -1.0645459870        7.3643515252       11.4751366087
  C        -1.8114710390        6.2649199617       11.0243113109
  C        -1.6760498944        5.7122399417        9.7589064681
  C        -0.7666153875        6.3160095228        8.8879070448
  C        -0.0196419380        7.4364452942        9.2712614826
  C        -0.1334091724        7.9352107631       10.6066949021
  H         0.3074858152        8.8315609336       10.9010748250
  H         0.7243423125        7.8867747068        8.5597622400
  H        -0.8664440725        6.0190471073        7.8496761374
  H        -2.1599637540        4.8396717545        9.4055943881
  H        -2.4465994605        5.8541967326       11.7612795966
