140

  C        15.5360359547       -1.1702801249        0.4258346272
  C        16.6359939150       -0.5513309576        1.1235621320
  C        17.7541146225        0.0323223907        0.4556939805
  C        18.8248080349        0.5984959921        1.1719546266
  C        19.9496009954        1.0787745203        0.5426334761
  C        16.5123326254       -0.0478763457        2.5516468669
  C        15.7241652297        1.0523642469        2.8417639836
  C        15.7875665704        1.5159919996        4.2097181373
  C        16.5761096991        0.9733115274        5.1724444443
  C        17.3068758071       -0.1759630571        4.8452074528
  C        17.2872248254       -0.6252625197        3.5076655164
  H        18.8216223796        0.5531777591        2.2431925512
  H        20.8065207817        1.4841069848        1.1382221032
  H        15.0538494372        1.5450031099        2.1016810505
  H        15.2807872443        2.4546207327        4.4262300388
  H        16.5915627637        1.2919170583        6.2071211942
  H        17.9805090139       -0.6937770036        5.5136634314
  H        17.9366546509       -1.4509331828        3.2822106735
  C        15.5659727455       -1.1709900779       -1.0197940574
  C        14.5138550418       -1.8701822288       -1.6633170797
  C        13.3587291467       -2.3641218036       -1.0803518763
  C        13.3526539859       -2.4033493315        0.3356950598
  C        14.4768817702       -1.8694498803        1.0789574349
  C        17.8008262685       -0.0111085690       -0.9678549857
  C        16.7062127844       -0.5768274060       -1.6959108210
  C        16.6703868514       -0.3069852238       -3.1577823842
  C        15.7300304946        0.6003930859       -3.6823560916
  C        15.6371764019        0.9524389188       -4.9993799341
  C        16.4903188215        0.4168174328       -5.9620014178
  C        17.4851233158       -0.4369621590       -5.4989257749
  C        17.5603871329       -0.8263447490       -4.1067689977
  H        18.2848666596       -1.5467004561       -3.7987852569
  H        18.1479848119       -0.9514263492       -6.2456210403
  H        16.3785099123        0.6616877450       -7.0235581156
  H        14.7802445948        1.6289936408       -5.1954458334
  H        15.0828155766        1.1092389309       -2.9281142268
  C        18.9202247090        0.5484588670       -1.6125928025
  C        20.0151884362        1.0448367389       -0.8746565576
  H        20.8571935177        1.5004344447       -1.4257105443
  H        18.8944983450        0.5633782239       -2.7111948303
  C        14.6641315890       -2.0992078138        2.5202279221
  C        15.5487835733       -3.0571413686        2.9996344944
  C        15.5407369824       -3.6057594597        4.2895689790
  C        14.4926092389       -3.2458005652        5.1594169438
  C        13.5790098092       -2.2471239682        4.7398880861
  C        13.7519301375       -1.5947141513        3.5070148871
  H        12.9815986291       -0.8337317418        3.0635605337
  H        12.7189133156       -1.8898140420        5.3887605371
  H        14.2747267059       -3.8077315098        6.0345613180
  H        16.3550057455       -4.3323439621        4.5217040043
  H        16.3659200320       -3.4289151557        2.3415248832
  C        12.3185508946       -3.1785625217        1.0857667018
  C        11.4409625347       -3.9220522054        0.3718823474
  C        11.4270587003       -3.9068953284       -1.0520077531
  C        12.2923076678       -3.0878160760       -1.7713570611
  H        12.3061727839       -3.1525191706       -2.8343715158
  H        10.8321136145       -4.6811070322       -1.5279051819
  H        10.6806909140       -4.6246577120        0.8434684041
  H        12.3704811887       -3.2201896095        2.1367742755
  C        14.7249098189       -2.3040622978       -3.1612342463
  C        15.4000177824       -3.4418264763       -3.4700867978
  C        15.3544523550       -4.0236921924       -4.7529608034
  C        14.6094171855       -3.4491985980       -5.7445771898
  C        13.8853836076       -2.3123323215       -5.5236075435
  C        13.9168746604       -1.7861682704       -4.2288904180
  H        13.3310152177       -0.8995204851       -4.0950757546
  H        13.2525155318       -1.8835143593       -6.2884062771
  H        14.5904420427       -3.9412982330       -6.7661564682
  H        15.7829189903       -5.0228985915       -5.0095215776
  H        16.0601616934       -3.9026099389       -2.7635942022
  C        11.7803903841        5.8677387844        0.4415541030
  C        10.7220761675        6.5172128381        1.1823291163
  C         9.5890076541        6.9540007928        0.5474942962
  C         8.4001450229        7.5995283618        1.1436148299
  C         7.3403430960        8.1607406520        0.4069874427
  C        10.9782484240        6.9487483747        2.6269030744
  C        12.0338180164        7.8669309454        2.7340985707
  C        12.3507601757        8.5143819384        3.9346858154
  C        11.5014493496        8.3099889902        4.9817302715
  C        10.4247210632        7.4214710892        4.8865684904
  C        10.2305502558        6.7374524122        3.7071865286
  H         8.3124994885        7.4999726688        2.2221766483
  H         6.5297478256        8.6051986514        0.9473364366
  H        12.7116247008        7.9001269958        1.8170016564
  H        13.1755260216        9.2639076013        4.0015651631
  H        11.5829260895        8.7205494122        6.0668489860
  H         9.9290621985        7.1860211715        5.7749485286
  H         9.4083626700        6.0155991916        3.6355027173
  C        11.7186917715        5.8487653459       -1.0673916787
  C        12.7690665028        5.1621502103       -1.7384071761
  C        13.8923390163        4.5871141292       -0.9825981588
  C        13.9429091433        4.6360033283        0.4862086287
  C        12.8158097598        5.1597325504        1.1670467365
  C         9.5672825464        6.9987279100       -0.9632841449
  C        10.6713085477        6.6118264586       -1.6960421996
  C        10.7531908069        7.0139795235       -3.1195298440
  C        11.5555585369        8.0258483176       -3.5017020271
  C        11.5977154700        8.4983816446       -4.8402544209
  C        10.8353665380        7.9133774329       -5.8548460882
  C         9.9509535159        6.8856185189       -5.4908350781
  C         9.9413750124        6.4103165208       -4.1200450592
  H         9.3337300086        5.5803497223       -3.7986440446
  H         9.2886281485        6.4557130207       -6.2037084811
  H        10.7098774455        8.3506225797       -6.8866859296
  H        12.4075221374        9.1986203074       -4.9831757605
  H        12.2115032214        8.5033075724       -2.8217028103
  C         8.4717494834        7.6464816975       -1.6299665461
  C         7.4583186236        8.3356665147       -0.9794758347
  H         6.6022021887        8.6473407275       -1.5908682456
  H         8.3912867379        7.6244273061       -2.7454437285
  C        12.7838947450        4.8639551850        2.6633159514
  C        12.0328415652        3.6986356674        3.0316669365
  C        12.1165924089        3.1365890223        4.3214017767
  C        12.8831499963        3.8270774476        5.2729337619
  C        13.6533351914        4.9512939408        4.9596187698
  C        13.6485627941        5.5014687096        3.6382487217
  H        14.2550578173        6.3131311585        3.3792891534
  H        14.4405686909        5.3899818932        5.6392737211
  H        12.8900276433        3.3617319936        6.2269042997
  H        11.4651695909        2.4095651810        4.6749963728
  H        11.4281285316        3.2943125053        2.2220571625
  C        14.9813126050        3.9976919781        1.1629614232
  C        16.0427767064        3.3314744892        0.5717233541
  C        16.0595284049        3.1952166351       -0.8959492237
  C        14.9964726064        3.8310282101       -1.6266254089
  H        15.0086011031        3.7323227121       -2.7233086946
  H        16.8957424480        2.6355169247       -1.3783340484
  H        16.9509446093        2.8927032075        1.0650541346
  H        15.0018865648        3.9869213175        2.1783129620
  C        12.7405657486        4.7870479477       -3.1904112099
  C        11.8991378426        3.7931712764       -3.6195514468
  C        11.9996036474        3.3394646128       -4.9088471472
  C        12.9402524573        3.8748532434       -5.8009236974
  C        13.7592629483        4.8746943705       -5.4055580818
  C        13.7627017331        5.3387286063       -4.0424737261
  H        14.5037965239        6.1150471340       -3.6442447005
  H        14.5642812820        5.2851739472       -5.9678384821
  H        12.8591962644        3.5330235291       -6.8237838555
  H        11.3975521601        2.4463270978       -5.2079716689
  H        11.1169288056        3.3181609618       -2.8971647114
