140

  C         3.8799226661        0.2068708570       15.2402446152
  C         4.9414383321        0.8669775241       15.8842934475
  C         5.9894431325        1.4300918381       15.1946334178
  C         7.0335968114        2.1539767971       15.8948936824
  C         8.0489233094        2.8468662209       15.1526145923
  C         4.9508683755        1.1094331650       17.3842891553
  C         4.1498636145        2.1845400734       17.8768727709
  C         4.1333200895        2.5093715780       19.2229569702
  C         5.1233473370        1.8801136099       20.0828164341
  C         5.9433353096        0.8705846855       19.6271409360
  C         5.7934176725        0.4155284521       18.2510845845
  H         7.0226411809        2.0385014465       16.9583649828
  H         8.8909991667        3.3795150927       15.5903736700
  H         3.5417092134        2.7157839284       17.1561412340
  H         3.4998384751        3.2616492674       19.7231900287
  H         5.2280960611        2.2864482077       21.0430772939
  H         6.7437425648        0.4771382900       20.2152563094
  H         6.4192764887       -0.3930972315       17.8761473591
  C         4.0159078765        0.0896083084       13.7398188995
  C         3.0426811409       -0.6595768588       13.0329348940
  C         1.9304042406       -1.2799850423       13.6519422355
  C         1.8986423890       -1.3374775827       15.1009171426
  C         2.8284072653       -0.5892076627       15.8760183969
  C         6.0829575240        1.4351252904       13.7580499844
  C         5.0975710701        0.7790724992       13.0543861543
  C         5.0783773321        1.0120488153       11.5988679698
  C         4.2297190305        2.0642352140       11.1799751719
  C         4.0901578805        2.4831023743        9.8574381367
  C         4.7889054876        1.7857101042        8.8465445449
  C         5.6960657759        0.8210807850        9.2901726149
  C         5.9005330253        0.4315841551       10.6509577271
  H         6.7050226142       -0.2641836467       10.9469725281
  H         6.3350089295        0.4105533104        8.5549934206
  H         4.5910498342        1.8259249955        7.7632196424
  H         3.4802239152        3.3752362754        9.7292820661
  H         3.6316055205        2.6048000075       11.9002064142
  C         7.2205622519        2.0233362693       13.0456634468
  C         8.1693071185        2.7152839114       13.7354241830
  H         8.9251776136        3.2659188334       13.1808276179
  H         7.3419085995        1.9621218696       11.9780009856
  C         2.8992186966       -0.9612931447       17.2732452706
  C         3.6469125976       -2.1304241283       17.6546740731
  C         3.4649749666       -2.6220840635       18.9434023578
  C         2.7768588734       -1.8554405201       19.8910129624
  C         2.1214917846       -0.6686559480       19.5383452097
  C         2.1784309725       -0.2533422593       18.1630610040
  H         1.5433912388        0.6310999342       17.8341879481
  H         1.5513261381       -0.1799952810       20.3623328275
  H         2.6938224033       -2.1498300800       20.9514600373
  H         3.7884007803       -3.5342019687       19.3725614349
  H         4.2428958590       -2.7132808972       16.9401127837
  C         0.7742520734       -1.9696069237       15.7631818182
  C        -0.2249602940       -2.4756153552       15.0055101052
  C        -0.2118043078       -2.4390456710       13.5792985849
  C         0.8735426233       -1.9071155803       12.8842781489
  H         0.8697588789       -2.0737716426       11.8370824413
  H        -1.0625567726       -2.8246883183       12.9921616271
  H        -1.1150800795       -2.8675670667       15.5556537846
  H         0.7644526549       -1.9849116935       16.7956186803
  C         3.0662518636       -1.0797274821       11.5865655751
  C         3.8381805926       -2.1936708035       11.2255045940
  C         3.6984372477       -2.7087013690        9.9499651531
  C         2.7853994163       -2.1697177605        9.0398500395
  C         1.9245349002       -1.1289990126        9.4534783184
  C         2.1348996073       -0.5272026908       10.6754895223
  H         1.5414735690        0.2992186989       10.9587648098
  H         1.1417037099       -0.8148621823        8.7884720251
  H         2.6448582909       -2.5914475308        8.0931133492
  H         4.4251924711       -3.4195591440        9.5516006728
  H         4.6031004945       -2.4766051217       11.9030302750
  C         0.3164034262        7.3707158604       15.2950912969
  C        -0.7155442418        8.0363784622       15.9950905741
  C        -1.8152563838        8.6146524606       15.3077384544
  C        -2.7614176287        9.3237053303       16.0825732172
  C        -3.8529614387        9.9432311178       15.4807234984
  C        -0.4598041498        8.3985877136       17.4127595718
  C         0.2684806411        9.5860815056       17.7405229888
  C         0.4635431125        9.9721908951       19.1130063883
  C        -0.1769759524        9.2951595447       20.1244615194
  C        -0.9994072633        8.2133179251       19.8192134366
  C        -1.0887218416        7.7184159099       18.5218057250
  H        -2.6074539141        9.2958059668       17.1792934420
  H        -4.5250050772       10.5798968103       16.0533742850
  H         0.8201079071       10.0757867205       16.9545965809
  H         1.1075705459       10.8249476701       19.3716121987
  H         0.0169861466        9.4935956843       21.1771189811
  H        -1.4631821519        7.7661471568       20.7150533457
  H        -1.5968190862        6.7704941418       18.3073430293
  C         0.2505889087        7.3294315818       13.8287001374
  C         1.3641726477        6.6469702589       13.1286344723
  C         2.5136364041        6.1747466991       13.8162343206
  C         2.5906233421        6.2976002614       15.2910154505
  C         1.4453938299        6.8098183852       16.0109648769
  C        -1.9479609246        8.4852612446       13.8660066234
  C        -0.8207940499        7.9070443896       13.1291069151
  C        -0.7645635081        8.2708699298       11.6160487117
  C        -0.1250552728        9.4250245683       11.2214452204
  C        -0.1516606363        9.8970894764        9.8996471316
  C        -0.8027941502        9.2303953331        8.8595213357
  C        -1.6472578820        8.1368913156        9.3081008466
  C        -1.5437387178        7.6063956215       10.6018781405
  H        -2.2322666520        6.8174070667       10.8313226057
  H        -2.2570992939        7.6405094670        8.5022450653
  H        -0.8800758742        9.4792837746        7.7521867371
  H         0.4326830106       10.7512514360        9.5865174755
  H         0.4938114178        9.8330760740       12.0117059779
  C        -3.1811565208        9.0096307030       13.3575632558
  C        -4.0812740388        9.7702626660       14.0863649724
  H        -4.9814606588       10.1087542820       13.5851008131
  H        -3.2390398960        8.9459716363       12.2818758163
  C         1.4202040018        6.3742526874       17.4389319399
  C         0.4506195857        5.4299469019       17.7538708707
  C         0.4744691704        4.7265766768       18.9964468557
  C         1.4071080280        5.0943302300       19.9836880254
  C         2.3409998100        6.1067847871       19.7031864954
  C         2.3810906695        6.7310622570       18.4132717452
  H         3.1587016857        7.4219498674       18.2026690066
  H         3.0256256163        6.4348171230       20.5334658703
  H         1.4262312747        4.5575412908       20.9252034071
  H        -0.2647658500        3.9342767309       19.2129648874
  H        -0.2632073656        5.1254482863       16.9463476402
  C         3.5784066962        5.4474063549       15.8544032369
  C         4.4678698432        4.6632462338       15.1604581143
  C         4.4950389832        4.6868618835       13.7424721963
  C         3.5781818874        5.4374653724       13.1000056995
  H         3.5216464913        5.4122962477       12.0347080277
  H         5.1517060378        4.0294393420       13.2403961663
  H         5.0750212274        3.9372676495       15.7404897644
  H         3.5058165599        5.3330237643       16.9587193234
  C         1.3169898399        6.1753065213       11.6486673806
  C         0.5856492017        5.0415037462       11.2555407900
  C         0.6406219471        4.4769605476        9.9877229272
  C         1.5030491824        5.1244099839        9.0544237641
  C         2.1834402776        6.3264504425        9.3714824380
  C         2.1369346744        6.8261790165       10.6748910545
  H         2.7373705311        7.7645080368       10.8869723620
  H         2.8179109972        6.7572055619        8.5615740748
  H         1.6085936498        4.6953865898        8.0183856122
  H        -0.0600057106        3.6350901773        9.8257203868
  H        -0.0179520605        4.4900970670       11.9582719191
