140

  C         5.2573712239       -0.1022606370       15.9388964714
  C         6.2613713934        0.5901377309       16.6236924708
  C         7.3747706964        1.0838754791       15.9331997465
  C         8.3864301300        1.8330304182       16.5982304919
  C         9.3436471100        2.5690709663       15.9034500533
  C         6.1362861578        0.8435637364       18.1536137560
  C         5.2754303969        1.9416693243       18.5133805810
  C         5.2640980748        2.3925265105       19.8470726850
  C         6.1848353485        1.8629117574       20.8046404554
  C         6.9679311787        0.7601492277       20.4342532316
  C         6.9295753568        0.2232562957       19.1693380586
  H         8.3041157467        1.9966637955       17.6242978801
  H        10.1605314312        3.0392257205       16.4222794657
  H         4.4100989546        2.2832629072       17.8893168785
  H         4.6222511265        3.1534893521       20.1666581239
  H         6.2759290431        2.1668155708       21.8418768779
  H         7.6686864795        0.2670610747       21.1283204669
  H         7.5278737801       -0.5713816700       18.7557707571
  C         5.3162713870       -0.1470030100       14.4662203326
  C         4.3066631768       -0.8533585205       13.6897010090
  C         3.1435753679       -1.4049228429       14.2332675493
  C         3.0447925033       -1.3527142656       15.7008086593
  C         4.0902725784       -0.8601828666       16.5286097590
  C         7.3754304209        1.1534340295       14.4895983214
  C         6.2450273710        0.6452623649       13.7879705777
  C         6.1724736532        0.9731146455       12.3437041915
  C         5.2393419948        1.9923836351       11.9476463607
  C         5.1979740500        2.4525584090       10.6133212091
  C         6.0814578202        1.9206282843        9.6565684657
  C         7.0494418919        0.9242162300       10.0902049526
  C         7.0993960349        0.4531961278       11.4287493057
  H         7.8683425625       -0.2850242694       11.7320034710
  H         7.7467917265        0.4928998424        9.3486479778
  H         6.1562436592        2.3679787087        8.6404296285
  H         4.4543467936        3.1973288696       10.3244281122
  H         4.5443307242        2.3915727123       12.6452485521
  C         8.4176737148        1.8498248850       13.8076815839
  C         9.3791803997        2.5191766829       14.5167917669
  H        10.0939864206        3.0944954036       13.9359670471
  H         8.4181374751        1.8407880031       12.7431301738
  C         4.1263976087       -1.2023631564       17.9679435486
  C         4.8985381610       -2.3401604210       18.2268637450
  C         4.8992070182       -2.9245564678       19.5008868451
  C         4.1726821983       -2.3486281658       20.5153803701
  C         3.4758014676       -1.1786123931       20.2850658669
  C         3.4757879186       -0.5347067194       19.0355523032
  H         2.8550051165        0.3692799895       18.9302192151
  H         2.9511546089       -0.7685454903       21.1930205884
  H         3.9975066638       -2.9085213262       21.4596687426
  H         5.4883924397       -3.7821423180       19.6679221088
  H         5.4461055464       -2.7876084665       17.3731596238
  C         1.8499790762       -1.8841932114       16.2681861596
  C         0.8613877955       -2.4460179540       15.4849849360
  C         1.1091447639       -2.7040325139       14.0917794701
  C         2.2329561229       -2.2084958529       13.4968637146
  H         2.4265652705       -2.3142893602       12.4750363471
  H         0.4752934522       -3.3510535769       13.5711813402
  H         0.0093392664       -2.8897497472       15.9750939549
  H         1.8317774066       -1.6522590070       17.3112840610
  C         4.5888902412       -1.2407193137       12.2471752606
  C         5.5888635294       -2.1713103300       12.0376154177
  C         5.9398233320       -2.6918487732       10.7578636415
  C         5.1586103060       -2.1895607160        9.6609693832
  C         4.2968306465       -1.1094803908        9.8691467863
  C         3.9654501862       -0.6386581193       11.1439642774
  H         3.1306086062        0.0258576736       11.3539303099
  H         3.7918131386       -0.5309764781        9.0468461201
  H         5.2685130932       -2.6939361262        8.7014049419
  H         6.7933316002       -3.3837226665       10.6965545001
  H         6.0263710223       -2.6329627361       12.9095043493
  C         1.7050212169        7.0936844597       16.1129385984
  C         0.6010932259        7.7433928047       16.7830545602
  C        -0.5226730406        8.1493971057       16.0253060608
  C        -1.7205976008        8.7163396741       16.6378767544
  C        -2.7260419957        9.2239866788       15.9143757530
  C         0.6084963782        8.2566712284       18.1852270940
  C         1.3216695104        9.4196824859       18.5617325732
  C         1.0588234331        9.9249518096       19.8360509678
  C         0.2715718786        9.2917215439       20.7542714505
  C        -0.3146197225        8.1018795588       20.4217625052
  C        -0.1953369148        7.5987830567       19.1200392105
  H        -1.8871145351        8.7798156410       17.6987789637
  H        -3.6662857251        9.5907220121       16.3255640394
  H         1.8797264651        9.8971983478       17.7563319827
  H         1.3878865893       10.9096968434       20.1037350986
  H         0.1105202326        9.7463370505       21.7910300005
  H        -0.8628737364        7.6110154714       21.2547599444
  H        -0.6699447047        6.6969653457       18.8593163268
  C         1.7164828261        6.8872347203       14.6179865269
  C         2.8409192070        6.2161546078       13.9638420442
  C         3.8684203958        5.7081500431       14.7685369802
  C         3.8426806303        5.9633576921       16.1905022971
  C         2.7570387567        6.4904478753       16.8945433385
  C        -0.4749842913        8.0686902040       14.5407148510
  C         0.5669241423        7.4034536758       13.8793174422
  C         0.6999948830        7.7241471365       12.3714612719
  C         1.4285025226        8.9347600181       12.1081913789
  C         1.3564972672        9.5753133498       10.8943438954
  C         0.6326500653        8.9526295109        9.8583294908
  C        -0.0263116300        7.7745316518       10.1502356902
  C        -0.0373311527        7.1156172325       11.3403678795
  H        -0.5446181039        6.2068918356       11.4983033161
  H        -0.6958387422        7.3476390644        9.4012110786
  H         0.3678651430        9.4643759475        8.8705413821
  H         1.8636627535       10.5841514043       10.7924181655
  H         1.9427248560        9.4976290683       12.8583458099
  C        -1.5057855678        8.7432668118       13.8198600984
  C        -2.6423067601        9.2038532894       14.4821511908
  H        -3.4212244310        9.6493642425       13.8219107337
  H        -1.5079020516        8.7414861440       12.7450659898
  C         2.5986632438        6.1014372230       18.3563531428
  C         1.8266029483        4.9567604152       18.6252925695
  C         1.7339445128        4.4919552221       19.9602586600
  C         2.5036820843        5.1736062634       20.9365194734
  C         3.1353646395        6.3954794061       20.6693615533
  C         3.1547759692        6.8944670771       19.3492880230
  H         3.6129098845        7.8223092616       19.0785266398
  H         3.7384745979        6.8746360382       21.4707248840
  H         2.4213676062        4.9180910537       22.0371063188
  H         1.0849242392        3.6261194649       20.1419829194
  H         1.1641801132        4.5766269001       17.8254413784
  C         4.9647967750        5.4389745285       16.9834380306
  C         6.1100722549        4.9013635075       16.3820823029
  C         6.0420868677        4.5906308054       15.0027463737
  C         4.9034207376        4.8712703496       14.2714130800
  H         5.0121480071        4.5449482271       13.2398160787
  H         6.9074601925        4.1997385944       14.6834146805
  H         6.9150241224        4.6107092821       17.0120326239
  H         4.8686831545        5.5386338215       18.1165262778
  C         2.8479448485        5.9294237192       12.4885330323
  C         2.0389869329        4.9262864970       11.9391713715
  C         2.0517920344        4.6988835852       10.4864378275
  C         2.9749678972        5.3561894615        9.6752198985
  C         3.8769784242        6.2968532895       10.2812866738
  C         3.7198250220        6.6292182341       11.6229949749
  H         4.3352157948        7.4096017963       12.0207443498
  H         4.5379983599        6.8440772684        9.6070379957
  H         2.9125615182        5.3826380229        8.5773306678
  H         1.2808379245        4.0406725507       10.0884659016
  H         1.3493054455        4.4538983544       12.6234575415
