140

  C        13.1753887212        0.5144918221        1.2697389282
  C        14.2161013513        1.2323240102        1.9642307881
  C        15.3522032062        1.6551569512        1.2124867751
  C        16.4565435877        2.5457755493        1.7376037870
  C        17.3133645962        3.2202382446        0.8747631374
  C        14.0991383859        1.6919368045        3.4424092968
  C        13.0532968831        2.5525629997        3.8788460027
  C        12.9604337265        3.0407817026        5.1835580043
  C        13.9939844110        2.7167274089        6.0920026498
  C        15.0308577754        1.8611192581        5.7061508431
  C        15.0393545637        1.3014001495        4.4239164995
  H        16.4798558483        2.6429619944        2.8582403884
  H        18.0061112143        3.9490051726        1.2860063110
  H        12.2876318378        2.7549039645        3.1261104892
  H        12.1331022269        3.6472145882        5.4936574697
  H        13.8534049209        3.0744368585        7.1272858893
  H        15.9102664786        1.6317923182        6.3662794912
  H        15.7819815055        0.5513299802        4.2558898818
  C        13.2214783506        0.3443938276       -0.2379696635
  C        12.1648579499       -0.3111920678       -0.9348533388
  C        10.9691285025       -0.6973133927       -0.2278732702
  C        10.9487096931       -0.6445890501        1.2405555528
  C        12.0504972946       -0.1659458970        1.9618912340
  C        15.3351759111        1.5629325897       -0.2619988133
  C        14.2425015554        1.0000495755       -0.9180450936
  C        14.0141036180        1.3376760798       -2.4129921848
  C        13.2917239731        2.5117134722       -2.7150052979
  C        13.2845278280        3.0376515622       -3.9849976984
  C        14.0579032969        2.4099759165       -4.9903314500
  C        14.8128306581        1.2837765839       -4.7410672934
  C        14.8272498819        0.7943592283       -3.3811060357
  H        15.4170902016       -0.1016369902       -3.2565753015
  H        15.5263750757        0.9687138258       -5.4905018978
  H        14.1384808864        2.8544664787       -5.9574726420
  H        12.8002641757        3.9679558296       -4.3127406573
  H        12.6751679618        2.9663845994       -1.9636285809
  C        16.4563952319        2.1503094855       -1.0414825614
  C        17.3261477448        3.0026391487       -0.5361534783
  H        18.0018258924        3.4576501520       -1.2218945168
  H        16.5004570418        1.8557058898       -2.0683388853
  C        12.1547378509       -0.4963107694        3.4416181609
  C        13.2159582129       -1.3841368464        3.8191045616
  C        13.2338092446       -1.9276445366        5.1688419612
  C        12.2920042562       -1.5655102888        6.1407957725
  C        11.3337717415       -0.6114425049        5.7483121564
  C        11.2954089634       -0.0387857144        4.4930095232
  H        10.5581254535        0.7405188119        4.3458006541
  H        10.6684587705       -0.2253607121        6.5743056529
  H        12.2956398485       -1.9699959918        7.1114111693
  H        14.0984874029       -2.5039635312        5.4265619632
  H        13.9746863012       -1.6470670889        2.9730603973
  C         9.8694348560       -1.2688869067        1.9053425902
  C         8.7994852302       -1.8680302263        1.2116156159
  C         8.7499463549       -1.8063326577       -0.2042686204
  C         9.8583109699       -1.3422705469       -0.8828033986
  H         9.9180897912       -1.4468271783       -2.0048408536
  H         7.9153385456       -2.3017297437       -0.7011934753
  H         8.0129412701       -2.3874954243        1.7081293566
  H         9.8341842431       -1.2902825923        2.9671376954
  C        12.1903636258       -0.8405585858       -2.3223609378
  C        12.7445920759       -2.0621246920       -2.6188046386
  C        12.4571438099       -2.5947148749       -3.8955946221
  C        11.7660032743       -1.9373360617       -4.9487008387
  C        11.2101929505       -0.6822363001       -4.5537914588
  C        11.3936059210       -0.1787129234       -3.2906532034
  H        11.0018307308        0.7624498408       -3.0179517862
  H        10.6277262990       -0.1617705526       -5.3123955505
  H        11.6713553698       -2.2534528296       -5.9919156271
  H        12.9549690748       -3.5322459212       -4.1217997503
  H        13.3711528769       -2.5645094565       -1.8709220276
  C         9.6751371512        7.8306526814        0.9771125508
  C         8.7526511620        8.5610579570        1.7499575811
  C         7.5513117573        9.0331474306        1.1716901052
  C         6.5249614356        9.7248603538        1.9100430637
  C         5.4081712627       10.2312646296        1.3044254648
  C         8.9282161084        8.8880752194        3.2524291921
  C         9.8907642327        9.9015159925        3.5266767023
  C         9.9403868512       10.4503030606        4.7953655191
  C         9.0863060162        9.9190279466        5.8002114795
  C         8.2555208328        8.8386580965        5.6290515848
  C         8.1386903792        8.3485970929        4.2856448626
  H         6.6250624932        9.8744299621        2.9767811532
  H         4.5900479954       10.7639040139        1.8270256561
  H        10.5728121090       10.3057807373        2.7722469576
  H        10.5688362220       11.3093666512        5.0812598546
  H         9.0002944929       10.4169143641        6.7388370906
  H         7.6653904311        8.3958959087        6.4257478267
  H         7.5064202012        7.5023801142        4.0777150122
  C         9.5393295269        7.6559270569       -0.4732550385
  C        10.4854344913        6.7757963041       -1.2218770185
  C        11.6193974404        6.2697114169       -0.4558230224
  C        11.7978920061        6.5310043737        0.9347950033
  C        10.8036831163        7.1791235131        1.6977659503
  C         7.4492406218        8.9923551697       -0.2282716093
  C         8.4550718730        8.3569750257       -1.0443320026
  C         8.3731938683        8.5626004395       -2.5477108281
  C         9.0724974095        9.7128939954       -3.0399111945
  C         8.8297013999       10.2057236989       -4.3344269232
  C         7.9233813095        9.5351871861       -5.2175151898
  C         7.2696889480        8.3938088771       -4.7785732599
  C         7.4136571757        7.9700334188       -3.4492381033
  H         6.9126599337        7.0418920880       -3.1638290787
  H         6.4497273821        7.9887528215       -5.3750765744
  H         7.6340996501        9.9061772103       -6.2036324238
  H         9.2016246120       11.2157375218       -4.5159774043
  H         9.7889873867       10.2242775179       -2.4065397117
  C         6.2722434707        9.5910797018       -0.8652741295
  C         5.2994307800       10.2229611471       -0.0852476279
  H         4.6001814221       10.7991218896       -0.7260996987
  H         6.1644679365        9.6555959261       -1.9505333404
  C        10.8513503239        6.8380533727        3.2311495852
  C         9.8489547956        5.9514250908        3.6253896047
  C         9.7150619911        5.4797070862        4.9366618608
  C        10.6774589932        5.8791859081        5.8290039749
  C        11.6722483478        6.8864362765        5.5469211905
  C        11.7072641260        7.3765020865        4.2631772290
  H        12.4497692769        8.1358599556        4.0450431085
  H        12.4132073268        7.1876134161        6.2895437817
  H        10.6470870189        5.5890060299        6.8855234609
  H         8.9767593079        4.6803523060        5.1386471183
  H         9.0778960660        5.6664026532        2.9010212473
  C        13.0169101664        6.0899735330        1.5858520985
  C        14.0284443744        5.4705880508        0.8500347571
  C        13.8109939375        5.0456061866       -0.4767786187
  C        12.6253676673        5.4262697125       -1.0917409796
  H        12.4558768547        5.1109113598       -2.1366852349
  H        14.7350020373        4.6868274123       -0.9589543004
  H        15.0189344008        5.2578093756        1.2579135010
  H        13.3424268781        6.4047152440        2.5942612669
  C        10.4360718114        6.4039554857       -2.6472279188
  C         9.7031364495        5.3195934040       -3.1811205946
  C         9.7279059914        5.1051326342       -4.5687539388
  C        10.6189577477        5.7167430761       -5.4395611610
  C        11.3970530634        6.7517196086       -4.9467335627
  C        11.2766369547        7.1029363856       -3.6097440378
  H        11.9373319083        7.8871270377       -3.1677024066
  H        12.0653155252        7.2721884836       -5.5637297602
  H        10.5226087244        5.4581816791       -6.5147003205
  H         9.0904291235        4.2940503438       -4.9087280150
  H         9.1722942866        4.6230419367       -2.5502090377
