140

  C         3.9352217917        0.1930453552       15.1586381360
  C         5.1443191617        0.7050981590       15.7949159980
  C         6.1333363406        1.2417273794       14.9783624125
  C         7.3817453483        1.6883483090       15.5859430489
  C         8.3659398429        2.3128117249       14.8350576973
  C         5.1027611351        1.1698385106       17.2704220951
  C         4.3087825299        2.2775844333       17.6300824695
  C         4.0376388632        2.4680356668       19.0047765655
  C         4.7094071941        1.6784335545       19.9110353622
  C         5.7403270929        0.7067729753       19.5462980113
  C         5.8287758780        0.3786169132       18.1971773223
  H         7.6082686633        1.5344328770       16.6140345469
  H         9.3656428299        2.5821010544       15.1727730158
  H         3.7449598984        2.7115189405       16.8047867139
  H         3.2297039710        3.1111229417       19.3489962088
  H         4.5343507967        1.7714402274       20.9714079152
  H         6.3101458844        0.2078399638       20.2977224903
  H         6.5285538250       -0.3747398058       17.8821818621
  C         3.8983699843        0.1224167802       13.6484314214
  C         2.9028689800       -0.6875020038       13.0042511472
  C         1.8484713318       -1.1813091398       13.7706887358
  C         1.9063496598       -1.1721111694       15.2437447917
  C         2.9886104067       -0.5708231366       15.9578706585
  C         6.0264063291        1.3883607406       13.5737523161
  C         4.9276304133        0.8500003236       12.8462642582
  C         4.7273094434        1.2179307862       11.4373096844
  C         3.7920845322        2.2144485104       11.0556944416
  C         3.8849454193        2.7025222058        9.7342726869
  C         4.7551988833        2.1831852042        8.7942549897
  C         5.6990799128        1.2449767634        9.1722819718
  C         5.6644996200        0.7049402191       10.4655975907
  H         6.4382469025        0.0133240597       10.7376724305
  H         6.4690487959        1.0055755956        8.4529421014
  H         4.9860914906        2.5867760841        7.8204176409
  H         3.1741452162        3.4941233873        9.4715741945
  H         3.1436013487        2.7242687041       11.7342322608
  C         6.9494231683        2.2411280001       12.8692008717
  C         8.1247923478        2.6028448114       13.4924063169
  H         8.8976667394        3.2197678031       13.0310113130
  H         6.7347725746        2.4682421199       11.8221792677
  C         3.1553607021       -0.9329248569       17.4408090251
  C         4.0849664348       -1.8606359277       17.7982825689
  C         4.0719905233       -2.3749945028       19.1474687526
  C         3.1058165612       -1.9370449894       20.0430408393
  C         2.1268400721       -1.0137426808       19.6520849626
  C         2.1627264128       -0.4791134759       18.3635079455
  H         1.3878974682        0.2380204087       18.0945754295
  H         1.4008357836       -0.6851040551       20.4640076298
  H         3.0774588079       -2.3443125305       21.0620331669
  H         4.8295449571       -3.0941230502       19.4506172321
  H         4.8077061764       -2.2310383320       17.0531714988
  C         0.9491028893       -1.8666813831       15.9534021429
  C        -0.1562612732       -2.3857481583       15.3165426180
  C        -0.2294477929       -2.3966392552       13.9196725259
  C         0.7282339361       -1.8249175179       13.1505597239
  H         0.7565326563       -2.0238401928       12.0978024925
  H        -0.9381580476       -3.1313919271       13.5377203614
  H        -0.8508921221       -2.9297976429       15.9565640657
  H         0.9649367235       -1.9839165812       16.9983222842
  C         2.8761913481       -0.9562108608       11.4667897286
  C         3.6668431037       -2.0911172685       11.0066122742
  C         3.7891699363       -2.4462816592        9.6891357791
  C         2.9892700012       -1.7709184414        8.7734513944
  C         2.2429898098       -0.6106527625        9.1552894838
  C         2.1760272601       -0.2295949939       10.4948614982
  H         1.6568683206        0.6112338906       10.8986879957
  H         1.6721148191       -0.1336485883        8.4051170089
  H         2.9155072921       -2.1313764436        7.7233437677
  H         4.3467083047       -3.3231444460        9.3686665345
  H         4.2967587584       -2.5555426161       11.7285520472
  C         0.2019819408        7.0949261111       15.0235368447
  C        -0.7350233377        7.9110773979       15.6986295908
  C        -1.8581130647        8.4423734290       14.9897780819
  C        -2.9536637688        9.0638603770       15.7305782104
  C        -4.0441957573        9.5818514773       14.9999409638
  C        -0.4824055082        8.3145158548       17.0827960565
  C         0.4239271388        9.3489005241       17.3786690719
  C         0.5962797805        9.7144663085       18.7360691343
  C        -0.3315400576        9.1994399628       19.6997398774
  C        -1.3420965541        8.3344662002       19.3577246353
  C        -1.3931698707        7.8226467976       18.0499116737
  H        -2.9016309518        9.3721692063       16.8043707909
  H        -4.8725731288       10.0874209700       15.5121354298
  H         1.0429533752        9.8223136175       16.6343356130
  H         1.2824931109       10.4838951144       19.0535930630
  H        -0.3173094718        9.5125918557       20.7429797819
  H        -2.1490963204        8.1518947322       20.0967712432
  H        -1.9919049834        6.9975582206       17.6883957271
  C         0.2547888308        7.1944857894       13.5448874189
  C         1.3022457622        6.4626657497       12.8399661225
  C         2.3581626937        5.9469366737       13.5961412631
  C         2.3135769021        5.8941767486       15.0213156875
  C         1.2389622961        6.4039196667       15.7197704274
  C        -1.8816450638        8.5009003631       13.5526951497
  C        -0.7368079911        8.0006197397       12.8742281654
  C        -0.6007923404        8.3073154509       11.4103911430
  C         0.0123018279        9.5646793914       11.1610020469
  C        -0.0526554190       10.0922750041        9.8988545485
  C        -0.7502388584        9.3660430222        8.8608562515
  C        -1.2758151007        8.1615889844        9.1656988106
  C        -1.2615942472        7.6181100672       10.4371903845
  H        -1.7519129102        6.6766719550       10.6592490505
  H        -1.8352463452        7.5566176509        8.3775370924
  H        -0.7717023772        9.7430561438        7.8325591076
  H         0.4656481481       11.0007366626        9.6021705339
  H         0.4734064668       10.1120932366       11.9799473188
  C        -2.9724164342        9.2431698484       12.8935571380
  C        -4.0247929784        9.7309962250       13.6079672232
  H        -4.6699733942       10.4828773339       13.1233777234
  H        -2.8290093815        9.3219538814       11.8304178761
  C         1.1318187495        5.9255399483       17.1765708740
  C         0.3871401110        4.8125009423       17.5228970684
  C         0.5179423482        4.3243152159       18.8312579162
  C         1.3282147468        4.9368804889       19.7936059373
  C         2.0046484922        6.0569616610       19.3973139000
  C         1.9619738028        6.5628141260       18.0975267593
  H         2.5625105743        7.3936588586       17.8323019352
  H         2.5631676081        6.6648638898       20.1477964009
  H         1.3588757351        4.6276304465       20.8397511734
  H        -0.0775409197        3.4529890098       19.0626729116
  H        -0.1823958717        4.2806499306       16.7218671926
  C         3.4574742152        5.2911639996       15.7257362892
  C         4.4520871994        4.6022013851       15.0465079853
  C         4.4267557952        4.5923329320       13.6301796427
  C         3.5037280753        5.3262140456       12.9501666599
  H         3.6107528109        5.3587431126       11.8982365122
  H         5.2636074783        4.1614720939       13.1324347878
  H         5.1056328734        3.9794100343       15.6400171657
  H         3.4925625822        5.4824058331       16.8191920860
  C         1.2599814572        6.1320314508       11.4292780080
  C         0.5625681917        5.0011401650       10.9321710333
  C         0.7143563788        4.5749952729        9.5563671407
  C         1.4363546460        5.3896532463        8.6262477987
  C         2.1636679384        6.4776658739        9.1499082810
  C         2.0131624928        6.8335311066       10.5344281655
  H         2.5654564371        7.7259241308       10.9079296291
  H         2.7034552282        7.2129117478        8.4709152560
  H         1.5734588931        5.2182839743        7.5623815707
  H         0.1374257602        3.6888849234        9.2987156311
  H         0.0105425503        4.3758468207       11.6342372853
