140

  C         4.7300686418       -1.0939194298       13.7072636088
  C         5.7444271827       -0.3970062580       14.3367708236
  C         6.7852647701        0.1512715515       13.4982107219
  C         7.9082357399        0.7011371641       14.1514218571
  C         8.8448236660        1.3646713759       13.4630470287
  C         5.8010301883       -0.1138173762       15.8424411610
  C         4.9358194679        0.9586076843       16.2085913781
  C         4.7763103206        1.3988291665       17.5609772224
  C         5.4181398519        0.6409282597       18.5535293079
  C         6.2615480066       -0.4393074641       18.1735407453
  C         6.4545447702       -0.8251556663       16.8197552016
  H         7.9912567272        0.6693281828       15.2057569911
  H         9.7134986576        1.7947794263       13.9808806336
  H         4.3172256239        1.4004091938       15.3791839199
  H         4.0751145967        2.2266371237       17.8634127235
  H         5.3019118963        0.9085846751       19.5922080185
  H         6.8269583058       -1.0029197073       18.8536692827
  H         7.0071203745       -1.7146718340       16.6276169408
  C         4.6843557377       -1.1245526157       12.2495866204
  C         3.6901308286       -1.9584729936       11.6182408054
  C         2.6242186026       -2.4225065767       12.3713493907
  C         2.5608308617       -2.2918653315       13.7934524637
  C         3.6741789222       -1.7593891358       14.4921109986
  C         6.7758790974        0.2123853152       12.0861119580
  C         5.6531547173       -0.3893428476       11.4879692823
  C         5.4669217997       -0.1118619762        9.9630431280
  C         4.6105065959        0.9114603562        9.4737409689
  C         4.7170787392        1.3247941355        8.1428020908
  C         5.5841311207        0.7570267592        7.2983975701
  C         6.4813287067       -0.2830759263        7.7208175167
  C         6.3460633145       -0.7150087532        9.0275636938
  H         6.8854110281       -1.6169052552        9.3767097381
  H         7.2020309928       -0.7353715775        7.0633101392
  H         5.5761300833        1.1689678042        6.2623000374
  H         3.9989712256        2.0598507576        7.8294989859
  H         3.8543307228        1.4090436691       10.0295849117
  C         7.7942148764        0.9461045784       11.3868982355
  C         8.7325251287        1.6361271400       12.0829899464
  H         9.4832572015        2.2396832387       11.5851556788
  H         7.6086794766        1.0363004609       10.3124946097
  C         3.7598316477       -2.0562125756       15.9622914210
  C         4.3633476029       -3.1994092397       16.4922342981
  C         4.3034709839       -3.6206346819       17.8055708706
  C         3.5641925990       -2.8132489213       18.6979749045
  C         2.9046794598       -1.6949090548       18.1901178549
  C         2.9763794323       -1.2935997474       16.8483947002
  H         2.3667150629       -0.4698235725       16.5176721255
  H         2.4177176366       -1.1312266484       18.9714325102
  H         3.5781375311       -3.0235351897       19.7670465286
  H         4.9594071003       -4.4108573704       18.1942785387
  H         5.0454152327       -3.7202419324       15.7898429057
  C         1.3860578744       -2.7494493890       14.5346002308
  C         0.3445985324       -3.2850225475       13.7752096281
  C         0.4667088350       -3.4111142856       12.2798342552
  C         1.5332973172       -2.9664831424       11.5977228133
  H         1.5172625426       -3.0124734117       10.5360984407
  H        -0.4199804773       -3.7317069505       11.7474486484
  H        -0.6114107624       -3.5907443996       14.2472486064
  H         1.3017320103       -2.6084146374       15.5895930970
  C         3.7236642429       -2.2613991995       10.1354348406
  C         4.5443471442       -3.3568157039        9.8289664801
  C         4.5994095395       -3.7701996673        8.5231229108
  C         3.6952814221       -3.2044751396        7.5386271701
  C         2.7550605784       -2.2840549898        7.8806227290
  C         2.8196323393       -1.7204333927        9.1922177410
  H         2.2586681624       -0.8804836672        9.6226748838
  H         2.0920100547       -1.8325081834        7.1457287754
  H         3.5903992616       -3.6393768444        6.5705078683
  H         5.1703942934       -4.6615095259        8.3704302494
  H         5.2379167294       -3.7910776608       10.5658243287
  C         0.7141700841        6.3265173811       14.0786649160
  C        -0.2714463932        7.1440582243       14.8245013306
  C        -1.3175865535        7.7191781886       14.0413789331
  C        -2.4650237981        8.3308172873       14.6178100738
  C        -3.4847423126        8.8082462445       13.8377746032
  C        -0.1208190385        7.5169639369       16.2738715272
  C         0.6911052063        8.6471814233       16.6681493249
  C         0.7073638505        9.0992396572       17.9658393186
  C        -0.1795695069        8.4747917766       18.9358728426
  C        -0.9652699668        7.3798354939       18.5336755344
  C        -0.9729788250        7.0144761999       17.2103008548
  H        -2.4808842872        8.2899437092       15.6662767179
  H        -4.3055339328        9.3420008232       14.3219718138
  H         1.3261178140        9.0341357846       15.8819952066
  H         1.2697247421        9.9994385055       18.1638008191
  H        -0.2896489656        8.8452472288       19.9957660623
  H        -1.6016635178        7.0253934337       19.3147927176
  H        -1.5371930459        6.0667519929       16.9628882976
  C         0.8022374412        6.3027021148       12.6567195451
  C         1.8255459832        5.5943950132       11.9639386003
  C         2.9006629468        5.0595635486       12.7380614095
  C         2.7539254070        4.9632760333       14.1582574024
  C         1.6619995536        5.5798518043       14.8202327816
  C        -1.2186124582        7.7354907116       12.5711628177
  C        -0.1806291173        7.0816405987       11.8964345051
  C        -0.0739160323        7.3728049747       10.4465080229
  C         0.5067667771        8.5502650964        9.9930215461
  C         0.5169764767        8.9571945618        8.6405035036
  C        -0.2320182530        8.1949446337        7.6952890478
  C        -0.8747519123        7.0204698528        8.1596263505
  C        -0.8453745175        6.6457602346        9.4903867324
  H        -1.3695923305        5.7471648435        9.7838482082
  H        -1.5735539328        6.5089935038        7.5016362976
  H        -0.3031380428        8.4998228136        6.6196642228
  H         0.9517855726        9.9432535316        8.3049611087
  H         1.1614906245        9.0300508513       10.7436992692
  C        -2.2411639847        8.3226714581       11.8365130124
  C        -3.3302454316        8.8620910000       12.4782091360
  H        -4.0845799214        9.3675985194       11.9166433578
  H        -2.0747778150        8.4108036743       10.7592986985
  C         1.7105135619        5.2963507113       16.3426165811
  C         1.0480914051        4.2105350130       16.9622100779
  C         1.1804983781        3.9632167317       18.3271114678
  C         2.0062544214        4.8166043885       19.0975492496
  C         2.7893276521        5.8232204788       18.5224034876
  C         2.5958584186        6.0823478920       17.1629500080
  H         3.1022492136        6.9066318635       16.6201145485
  H         3.5256752046        6.2708030813       19.1621222654
  H         2.1742264652        4.4936853321       20.0951821698
  H         0.6044146413        3.1723693006       18.8782642524
  H         0.6050705141        3.4732378184       16.3569662297
  C         3.8550518284        4.3627172777       14.8920992006
  C         5.0047758301        3.9443401146       14.3254068053
  C         5.0876693882        3.8392092820       12.9286131807
  C         4.0292513636        4.3910831842       12.1085255690
  H         4.0252627761        4.2912865119       11.0011361515
  H         5.8641879962        3.3648773679       12.3621579292
  H         5.8345932154        3.6709031163       15.0051698308
  H         3.8880726972        4.4122187139       15.9456194763
  C         1.6859459684        5.2626342066       10.4992119136
  C         0.9237919543        4.1204894349       10.1446722763
  C         1.1158613207        3.5494105322        8.9074460517
  C         1.9862598613        4.1543860055        7.9736536528
  C         2.5803622609        5.4052877946        8.2175401900
  C         2.4586175600        5.9164315163        9.5225266691
  H         2.9251807156        6.8539505644        9.8119176385
  H         3.1097612830        5.8737881234        7.4442502206
  H         2.0328011708        3.5855855894        6.9969401798
  H         0.6407661883        2.6439740803        8.5783219660
  H         0.1805152943        3.6929961379       10.8322239894
