140

  C        15.0818187757       -0.8253156922        0.3916708700
  C        16.0495800320       -0.1150583177        1.1395939687
  C        17.2082722585        0.3275472948        0.4357112328
  C        18.3525464488        0.8394062343        1.1164087507
  C        19.4355360865        1.4669816363        0.3994869762
  C        16.0089118617        0.0705631462        2.6182338469
  C        15.1881666853        1.1354211436        3.1447513804
  C        15.1800098136        1.3875588342        4.5104653316
  C        15.9551764124        0.6837357069        5.3915316079
  C        16.8463006143       -0.3528792871        4.8751391865
  C        16.8331305875       -0.6379157740        3.5046930532
  H        18.3095379033        0.7593377539        2.1851785988
  H        20.1516868541        1.9938930240        1.0109857623
  H        14.5949404062        1.7551016327        2.3971476560
  H        14.6339936385        2.2303577499        4.9555716717
  H        16.0813293816        1.0041622528        6.4225074336
  H        17.5468086763       -0.8940899872        5.5062305415
  H        17.5035676102       -1.4175556810        3.0977406815
  C        15.1205105358       -0.8855102179       -1.1025855324
  C        14.0473261062       -1.4895173939       -1.8984453872
  C        12.9534678989       -2.0054399966       -1.1893118755
  C        12.9774378485       -2.0730866856        0.3158024755
  C        14.0703816801       -1.5482999745        1.0309920103
  C        17.1895766641        0.3878024288       -0.9770770984
  C        16.1756749395       -0.2050500954       -1.7705033877
  C        16.1001472258        0.3036290509       -3.2082290150
  C        15.2073924048        1.3197019531       -3.5119705172
  C        15.2124606943        1.8649790370       -4.8337870752
  C        16.0672294016        1.3855924870       -5.8173667463
  C        16.9765197224        0.3127004774       -5.5508512515
  C        16.9658770473       -0.1998888213       -4.2390629402
  H        17.6558291664       -0.9620997240       -3.9827159523
  H        17.4919601217       -0.1417198053       -6.3565374931
  H        15.9151981801        1.7804510888       -6.8038977520
  H        14.4818751263        2.6165610453       -5.0986785467
  H        14.6539075505        1.6560653999       -2.6353615492
  C        18.3167045230        1.0109588396       -1.6532474392
  C        19.3667601370        1.5408899619       -0.9979602770
  H        20.1527081952        2.1094295844       -1.4873351905
  H        18.2550138676        1.1519059210       -2.7086574487
  C        14.1677030618       -2.0109305028        2.5042197538
  C        15.0099446806       -3.0753161489        2.9049436597
  C        14.9636283297       -3.5311732785        4.2321347822
  C        14.1374194363       -2.9858289653        5.2243797043
  C        13.2123178680       -2.0171767665        4.8679803411
  C        13.2992250639       -1.4807504700        3.4995683459
  H        12.5298604715       -0.7127522887        3.2686144443
  H        12.4888591834       -1.5158954475        5.5005397799
  H        14.2415672200       -3.3083262564        6.3310111959
  H        15.7340703472       -4.1595227768        4.5756777644
  H        15.8284538175       -3.3464269514        2.2462856349
  C        11.8506128397       -2.6683438406        0.9731313053
  C        10.7888331673       -3.2676695222        0.2996350791
  C        10.8381165475       -3.3414108615       -1.1195887736
  C        11.8376747512       -2.6689196590       -1.8234819324
  H        11.8558836139       -2.6266998670       -2.8952766533
  H        10.0137534927       -3.9011663137       -1.5353795575
  H        10.0101033798       -3.6462354311        0.8979144246
  H        11.7967729632       -2.5873840650        2.0333936759
  C        14.2127039123       -1.8502635241       -3.3232093952
  C        15.2218166131       -2.8029401249       -3.5193864157
  C        15.2880647329       -3.3953050675       -4.7460679234
  C        14.3775962933       -2.9078524173       -5.7656058329
  C        13.5172702451       -1.8994966624       -5.5731068072
  C        13.4468424260       -1.2813184044       -4.3030175420
  H        12.7446853182       -0.4992640890       -4.0267413417
  H        12.8684543915       -1.6029452471       -6.3416673685
  H        14.3622493568       -3.4416220574       -6.7015876490
  H        16.1726478436       -4.0302320272       -5.0039055843
  H        15.8951144075       -2.9959553691       -2.6692879478
  C        11.4649151615        6.0461151968        0.4353030424
  C        10.4275167818        6.7011109910        1.1586256364
  C         9.4242807192        7.4646144041        0.4266143420
  C         8.2441815364        7.9755631956        1.0558709683
  C         7.3121777784        8.6805997127        0.3942280890
  C        10.5569608782        7.0957574606        2.5478249480
  C        11.4791598303        8.1577607798        2.8112591342
  C        11.5660759815        8.7605753039        4.1051277246
  C        10.7286115656        8.2051253082        5.1118514675
  C         9.7927296165        7.2082068629        4.8240863385
  C         9.7595131870        6.5966555693        3.6104625786
  H         8.2863884849        7.9915722542        2.1323968253
  H         6.4362903720        9.0319578805        0.9630111274
  H        12.0811757718        8.4252857528        1.9873306813
  H        12.1192247031        9.6367694916        4.3370636052
  H        10.9055046003        8.6112056334        6.0381730674
  H         9.1689697683        6.7849029948        5.6072569604
  H         9.0226538979        5.8469693936        3.4659643314
  C        11.4607521195        6.0949271939       -1.0697864749
  C        12.4270628027        5.3163686217       -1.7772771443
  C        13.4855604107        4.6734352679       -1.0526440745
  C        13.4763870165        4.6982744989        0.3678941101
  C        12.3542301037        5.1969801674        1.0819078960
  C         9.4766494566        7.6324061241       -0.9870109247
  C        10.5382603653        7.0161288223       -1.7160476137
  C        10.6126568437        7.4158042249       -3.1195971450
  C        11.4595534503        8.4477677007       -3.5077330681
  C        11.6211813501        8.9199238401       -4.8639413386
  C        10.9043419565        8.3076979344       -5.8587597071
  C         9.9640001471        7.2670447050       -5.4896114097
  C         9.7188677216        6.8759680268       -4.2139806897
  H         9.0064903553        6.1540276093       -3.9130224872
  H         9.3368146424        6.8456986640       -6.2681906786
  H        11.1625984414        8.5392003470       -6.9418271913
  H        12.3690459631        9.7642345375       -5.0939134403
  H        12.1062230099        8.8585961713       -2.7577847811
  C         8.5111836256        8.4367334283       -1.6668075820
  C         7.4231311738        8.8833209807       -1.0162317565
  H         6.6957560019        9.4727666423       -1.6127738389
  H         8.6167450566        8.6893418570       -2.7001838654
  C        12.3985740631        4.9405705878        2.5489978307
  C        11.8080484010        3.7283295493        2.9880555332
  C        11.7928047411        3.3424347834        4.3326639824
  C        12.5524558077        4.0375012592        5.2471793669
  C        13.2259287775        5.2009126103        4.7925581939
  C        13.1219132912        5.6700273339        3.5180154834
  H        13.4758231141        6.6528711956        3.2665777556
  H        13.9115358921        5.8073851727        5.4911746084
  H        12.6374849040        3.7623881005        6.3130953105
  H        11.1888745081        2.5023767195        4.6053918867
  H        11.3385249798        3.1726572903        2.1697371701
  C        14.5877957468        4.1326002872        1.0815181915
  C        15.6652576226        3.5850015728        0.4260998097
  C        15.6515631444        3.5817332237       -0.9631454475
  C        14.6707960891        4.1926728139       -1.6756469229
  H        14.7175152248        4.3114360466       -2.7186638424
  H        16.4907897907        3.1906125082       -1.5055214026
  H        16.4706440185        3.1670453235        0.9772980837
  H        14.5481824249        4.2425252805        2.2213715118
  C        12.4939161237        5.1068032242       -3.2946795843
  C        11.6138977217        4.1968659792       -3.9063356011
  C        11.8201197132        3.9129785556       -5.3170367722
  C        12.7211667598        4.5783276868       -6.0902985796
  C        13.5372254582        5.5279934076       -5.5054812344
  C        13.4329342503        5.6977402768       -4.1001845664
  H        14.0705895362        6.4142110045       -3.6264642108
  H        14.3159384943        5.9975819525       -6.1504868747
  H        12.8565611851        4.4072776441       -7.1819528862
  H        11.2740793100        3.0564716803       -5.5650665318
  H        11.0697316056        3.5143323204       -3.3285669212
