140

  C         3.4845288079        0.0936890005       14.5641134529
  C         4.5620930168        0.8047073173       15.1392845672
  C         5.6825496773        1.2621582197       14.4574593831
  C         6.7504210783        2.0454217245       14.9773574199
  C         7.7820201335        2.5388165005       14.1706128398
  C         4.6850545364        1.1055884368       16.5998443717
  C         4.0276378672        2.1694280477       17.1780624971
  C         4.2425437832        2.5499600958       18.5392088497
  C         5.2220367295        1.8828225944       19.2783884521
  C         5.8156843473        0.6762572281       18.7856533009
  C         5.5009490697        0.2595568861       17.4835003363
  H         6.7738055120        2.0687567504       16.0519848135
  H         8.6751655643        2.9581199204       14.5898923643
  H         3.3227587457        2.6384414757       16.4604638929
  H         3.7169625295        3.3603182596       19.0893355230
  H         5.3318073635        2.2389203361       20.2767199685
  H         6.5714251111        0.1086513960       19.2878050240
  H         5.8705403169       -0.6985989121       17.0601666454
  C         3.4738823433        0.0430428637       13.1376308484
  C         2.4194399420       -0.5522348154       12.4268894732
  C         1.3360632084       -1.1755168818       13.1710457639
  C         1.4196662315       -1.2304387075       14.5640881966
  C         2.4749267400       -0.5922792595       15.2296232024
  C         5.5988934983        1.1817777295       12.9688119239
  C         4.5169708637        0.6191734477       12.3602599054
  C         4.4526259417        1.0189684542       10.9762709607
  C         3.5798605522        2.0374276562       10.4991065782
  C         3.5819541429        2.3776667251        9.1568502766
  C         4.3954253088        1.7699156479        8.2499840027
  C         5.2781153459        0.8175768950        8.6756698431
  C         5.3679836773        0.4973993478       10.0257292790
  H         6.0688345195       -0.2431324736       10.2881693636
  H         6.0466663299        0.4046059703        7.9967645412
  H         4.3744876645        2.0553009642        7.1765883250
  H         2.8522635934        3.1394657306        8.9188287320
  H         2.8108672641        2.3931312073       11.1495606466
  C         6.5472966438        1.9173534457       12.1842442112
  C         7.6547848213        2.5144499727       12.7566635161
  H         8.4802227452        2.8667032607       12.1183387812
  H         6.5106917146        2.0531149017       11.1260820062
  C         2.4585021456       -0.8554190265       16.6991294032
  C         3.2750938791       -1.9348769751       17.1313231224
  C         3.4320233346       -2.2421751798       18.4386883688
  C         2.6436719136       -1.6558623762       19.4184915218
  C         1.7527722268       -0.6466076606       19.0544554374
  C         1.7344478491       -0.2462924766       17.7105085943
  H         1.0494135095        0.5638164634       17.4487301418
  H         1.1540218728       -0.2345572257       19.9065114435
  H         2.6324910624       -2.0692603780       20.3923617446
  H         4.0200447337       -3.1191452871       18.7105189374
  H         3.8515485333       -2.4107984160       16.3257249936
  C         0.3536702852       -1.8567802433       15.3127310217
  C        -0.6890119639       -2.4551525048       14.6593632203
  C        -0.7663752710       -2.4989811902       13.1964997510
  C         0.2793017768       -1.8810957293       12.4785438762
  H         0.2817741898       -1.9301124030       11.3863428935
  H        -1.5848804408       -3.0356174307       12.6013203827
  H        -1.4658254720       -2.9968832914       15.2054985437
  H         0.5062095776       -2.0083269136       16.3958971830
  C         2.5330839575       -1.0532824015       11.0396568649
  C         3.3925290921       -2.1098152642       10.7875435981
  C         3.4927800438       -2.7321692351        9.4919628771
  C         2.7771718445       -2.2611783387        8.3747045686
  C         1.9331122609       -1.1525558478        8.6176572099
  C         1.8358277786       -0.5863144645        9.8970747174
  H         1.3042330863        0.3760572102       10.0412187502
  H         1.3813662849       -0.6117074998        7.8026722490
  H         2.9580011988       -2.6718703873        7.4215523221
  H         4.2805645099       -3.4827301779        9.3582121991
  H         3.9887562082       -2.3703621216       11.5958873087
  C         0.0373027797        7.1093223899       14.7025579172
  C        -1.0212089796        7.8436949967       15.3900693620
  C        -2.1729664833        8.2866958428       14.5991068811
  C        -3.3459348160        8.8745848233       15.2424575978
  C        -4.3078695180        9.4627300393       14.4534607527
  C        -1.1354095510        8.1693184742       16.8633121571
  C        -0.1914555562        9.1234424297       17.3782353240
  C        -0.2624130216        9.4670166257       18.6932365857
  C        -1.1662708767        8.9378153184       19.5912223035
  C        -2.0892713961        8.0099242336       19.1227153645
  C        -2.0671501950        7.6289089078       17.7525315217
  H        -3.4143668619        8.9006712358       16.3113634613
  H        -5.2170564186        9.8825990820       14.8773860306
  H         0.6027982496        9.5257298362       16.7692433091
  H         0.5496837914       10.0603308972       19.1169484675
  H        -1.1356725247        9.1350317246       20.6710195229
  H        -2.7460762613        7.5383254520       19.8417738875
  H        -2.6603210460        6.8060262431       17.3509620255
  C         0.0259916867        7.2072873763       13.1780595538
  C         1.0403760775        6.4973363327       12.4380413504
  C         2.2157214833        5.9290355439       13.1527132937
  C         2.2315288457        5.9111007728       14.6061196511
  C         1.1376559417        6.4432488191       15.3166758179
  C        -2.1000591135        8.3173639909       13.1469126297
  C        -1.0136327527        7.8850260870       12.4497329710
  C        -0.9410692486        8.1162013548       10.9864783577
  C        -0.1390031192        9.1799482240       10.5185395094
  C        -0.1768141135        9.5631384328        9.1688561404
  C        -0.9693824941        8.9017912731        8.2495127172
  C        -1.7657634057        7.8611838283        8.6459056789
  C        -1.6542261115        7.4168991516       10.0200579616
  H        -2.2671167780        6.5832076989       10.3321315379
  H        -2.4114921149        7.2378019190        8.0506207210
  H        -1.0184223081        9.2565538148        7.2382507673
  H         0.2341457555       10.4976616202        8.8250627416
  H         0.5441665618        9.6095169014       11.2911671203
  C        -3.1698023605        8.7836476523       12.4335881158
  C        -4.2205047809        9.3638189225       13.0693835052
  H        -5.0443619429        9.7612720251       12.5036521903
  H        -3.2089310000        8.8768492502       11.3535042097
  C         1.1832339925        6.2353868815       16.8268669920
  C         0.5814910432        5.1163116384       17.4454247847
  C         0.7516118899        4.8357817874       18.8281773438
  C         1.6052997718        5.6192770423       19.5996987465
  C         2.2256004199        6.7246660601       18.9982403700
  C         2.0492931168        6.9787950799       17.6403383223
  H         2.4774022929        7.8538201572       17.1227439240
  H         2.9365920460        7.2947321389       19.5985105549
  H         1.7202461130        5.4699895787       20.6846841439
  H         0.2051779116        3.9770405267       19.2805382132
  H        -0.0527924883        4.4602877133       16.8537222064
  C         3.2603010173        5.2542539173       15.3450117899
  C         4.3753261123        4.8030126519       14.6055526504
  C         4.3917110024        4.7535202731       13.2091033760
  C         3.3150447393        5.2633660746       12.5034967292
  H         3.1400972759        5.1597847057       11.4258763634
  H         5.2807847794        4.2983270773       12.7690849587
  H         5.1996523034        4.3125901380       15.1112207518
  H         3.2267676680        5.2651411894       16.4686336698
  C         0.9836216789        6.0508576363       10.9709561425
  C         0.4335450223        4.8156504944       10.7834981049
  C         0.2621772584        4.3054109306        9.5105683566
  C         0.6966063886        5.0027356968        8.4270677753
  C         1.3386774650        6.2825954983        8.5704707198
  C         1.4947032552        6.7772076374        9.8675239497
  H         1.9662070147        7.7497797974       10.0430043420
  H         1.7300642908        6.8216468461        7.7220234528
  H         0.5505938222        4.5719324570        7.4216306508
  H        -0.2814667170        3.4148477111        9.3411621851
  H         0.0872491893        4.2750822267       11.6595256365
