140

  C        14.9256767212       -0.8485342965        0.5289613405
  C        16.0260594638       -0.1162503855        1.1359111988
  C        17.0318312744        0.3556663237        0.3238846891
  C        18.2155216518        0.9774708065        0.9653051848
  C        19.1926367890        1.6051753715        0.2799129764
  C        16.0743694010        0.3755798301        2.5498968793
  C        15.4418277753        1.6294847533        2.9162603451
  C        15.5650654077        2.1748088421        4.1844422971
  C        16.2631339940        1.4860012392        5.1956453889
  C        16.8712127865        0.2887095049        4.8356405917
  C        16.7886107192       -0.2800578749        3.5770962098
  H        18.3077260245        0.9160779315        2.0504901344
  H        20.0628568626        2.0217637936        0.7880530643
  H        14.6666192029        2.1044210319        2.2234984929
  H        14.9780435828        3.0877699277        4.3863306958
  H        16.4100639672        1.9036224690        6.1986242049
  H        17.4291454920       -0.3430679263        5.5393525121
  H        17.2244906343       -1.1951658070        3.2522295660
  C        14.9026896007       -0.9474975335       -0.9684552508
  C        13.7569244545       -1.5497777598       -1.6265374869
  C        12.6770965266       -2.0478392951       -0.8688019559
  C        12.7442449304       -2.0421096349        0.6426926390
  C        13.9361127259       -1.5525931649        1.2733993764
  C        16.9644364217        0.4600939593       -1.1290557807
  C        15.8902249305       -0.1631667850       -1.7250516491
  C        15.8557264258        0.1165183858       -3.2066923048
  C        15.0300866620        1.1558253162       -3.7143135582
  C        15.1853509025        1.7450662289       -4.9911548297
  C        16.1359520853        1.2471160676       -5.8761427541
  C        16.9320392290        0.1535007088       -5.4493700435
  C        16.8252974437       -0.4003816176       -4.1515988235
  H        17.6021176030       -1.0817156697       -3.7975012115
  H        17.7249033945       -0.2229115455       -6.0832305235
  H        16.3501596802        1.6593134063       -6.8379107925
  H        14.5874228685        2.6297610262       -5.3006537990
  H        14.1674567861        1.5147299017       -3.1176935558
  C        18.0383564015        1.2169760003       -1.8270093198
  C        18.9900730862        1.8424909884       -1.1031528560
  H        19.7150040296        2.4552407688       -1.5966506313
  H        17.8867206715        1.4657836604       -2.8851210390
  C        14.1036084323       -1.8681939582        2.6897056922
  C        14.7798729998       -2.9609104209        3.2403051409
  C        14.8848622191       -3.1905894533        4.5595987215
  C        14.3016690088       -2.2209477582        5.4782761426
  C        13.5815872495       -1.1710733023        4.9682555592
  C        13.4228687113       -1.0379208451        3.6255219153
  H        12.7466793533       -0.2433939147        3.1879045795
  H        13.1777472432       -0.4232751589        5.6937592613
  H        14.1821320157       -2.4464209871        6.5510067984
  H        15.2633284529       -4.1192430695        4.9521518012
  H        15.1390951785       -3.7083359319        2.4654501170
  C        11.6401291648       -2.6118992376        1.3961942094
  C        10.5110672652       -2.9170485192        0.7529102764
  C        10.5013107623       -3.0372411200       -0.7006965340
  C        11.5319561350       -2.7249243200       -1.4881693739
  H        11.5703616862       -2.8236908291       -2.6047200287
  H         9.5486415320       -3.4796593415       -1.0592379748
  H         9.6713459796       -3.4548215030        1.3152035008
  H        11.7991006789       -2.9086754022        2.4289721974
  C        13.7160048149       -1.9139888765       -3.0386681882
  C        14.5463565150       -2.9337154063       -3.4900564669
  C        14.6162109750       -3.3571879672       -4.8170410529
  C        13.7272799459       -2.7845101962       -5.6743342294
  C        12.7493310858       -1.8526198858       -5.2909309819
  C        12.8572650226       -1.3312551930       -3.9625283155
  H        12.2293133808       -0.5940004458       -3.5096364232
  H        12.1465694988       -1.4610317531       -6.0612653286
  H        13.7887565278       -3.0222327266       -6.7658014262
  H        15.1322301133       -4.2639089860       -5.1221310625
  H        15.2165034725       -3.5147528588       -2.8007951123
  C        11.0947659122        6.2771677998        0.5323524376
  C        10.1039941264        7.0219861060        1.2253609534
  C         9.0617093105        7.6315308162        0.6080459828
  C         8.1937970951        8.5466399566        1.2504993279
  C         7.3358666782        9.3997608141        0.6223142086
  C        10.2400374202        7.4119739881        2.6838178840
  C        11.1791041796        8.4701052435        3.0358076190
  C        11.1641354404        9.0227474283        4.2816885468
  C        10.1968324777        8.5874401631        5.2504437310
  C         9.2741668477        7.5871238732        4.8939821353
  C         9.3877033676        6.9636480402        3.6664660133
  H         8.2400863805        8.6233998751        2.3454488123
  H         6.6998911065       10.0429140968        1.2143414648
  H        11.9718162479        8.6601695107        2.1943851439
  H        11.8946034953        9.7724681056        4.6875255112
  H        10.3481620188        8.9795062364        6.2595553085
  H         8.6537953317        7.1997503846        5.6376214362
  H         8.6648727884        6.2037902773        3.5133028542
  C        11.0968222301        6.3755613047       -0.9333508935
  C        12.0334459662        5.5340633968       -1.6780005814
  C        13.1731467771        5.0653739201       -1.0633987899
  C        13.3140805254        5.1680150920        0.3800886318
  C        12.1983388388        5.6211966316        1.1615251760
  C         9.0703716844        7.8030330146       -0.8677086003
  C        10.0782792054        7.2238464113       -1.5832079788
  C        10.2687601275        7.6064055913       -3.0240179717
  C        11.0398974414        8.7862583636       -3.1900839099
  C        11.2745629793        9.2875033824       -4.4336256033
  C        10.6292410557        8.7633476373       -5.6128472352
  C         9.7695969993        7.6473909753       -5.4352444291
  C         9.6903068188        7.0356455727       -4.1575856286
  H         9.0258510472        6.0965719512       -4.0385744464
  H         9.3647104596        7.1962718869       -6.3778658243
  H        10.9184307771        9.0581692433       -6.6094791368
  H        12.1133099396        9.9684988014       -4.4980220566
  H        11.3609201841        9.2542392357       -2.2758956409
  C         7.9562251236        8.5067210899       -1.4256456561
  C         7.0575580714        9.3177920116       -0.7093067111
  H         6.2193224086        9.7949204123       -1.2576874622
  H         7.8532465890        8.5065779556       -2.5065883227
  C        12.1801969575        5.1775637027        2.5822178794
  C        11.1595140589        4.3390989738        2.9007442719
  C        11.1302684236        3.6673006274        4.1582488899
  C        12.1260926038        3.9424694135        5.0591025609
  C        13.1872737421        4.8324038222        4.7470493517
  C        13.1753247848        5.4940229366        3.5046836357
  H        13.8661046759        6.2976591136        3.3112791575
  H        13.9592294724        5.1029526144        5.4775827110
  H        12.1737960620        3.5067058945        6.0749626018
  H        10.4208000063        2.8799716040        4.3656275858
  H        10.4630354664        4.0203298310        2.1056472585
  C        14.4910281531        4.5483030465        0.9567474809
  C        15.5049864174        4.0196997566        0.1611759745
  C        15.3628285319        3.9829684462       -1.2119477202
  C        14.2187877678        4.3782856495       -1.7812334177
  H        14.0117265741        4.2468365267       -2.7989397293
  H        16.0451543072        3.4834976895       -1.8844066373
  H        16.5125746705        3.8527954761        0.6397364462
  H        14.5868164924        4.4669027458        2.0281676197
  C        11.9182464351        5.2547142014       -3.1800831740
  C        11.0871126254        4.1962574805       -3.5523431816
  C        11.1330984224        3.5975314496       -4.8075697886
  C        12.0166357089        3.9679454525       -5.8716581402
  C        12.7911713872        5.0625764677       -5.5117663964
  C        12.7232239919        5.7403717215       -4.2448063898
  H        13.3077569263        6.5988427959       -3.9474441304
  H        13.2950443064        5.4616560678       -6.4122270482
  H        11.8787966507        3.3872767287       -6.8028596884
  H        10.4286471919        2.6538468708       -5.0194956702
  H        10.4810404218        3.8200910305       -2.7042816398
