140

  C        15.3023725282       -1.0874178721        0.3075877008
  C        16.3262158565       -0.4021194020        0.9744634772
  C        17.2990922381        0.2105116276        0.2269783623
  C        18.3701561140        0.8467593676        0.9027409376
  C        19.4520162361        1.4119679038        0.3073560637
  C        16.2907304689       -0.1830052132        2.5058113741
  C        15.5882974380        0.8558402983        3.0825790034
  C        15.6101222375        1.0974678542        4.4258831645
  C        16.4125223367        0.4264326318        5.3721491174
  C        17.0318591680       -0.6193284200        4.8068196781
  C        16.9626771001       -0.9931143913        3.4454301486
  H        18.4798063847        0.7308932744        1.9853667409
  H        20.2676974024        1.8284149651        0.8733205821
  H        14.8615935835        1.4746036869        2.4969982066
  H        14.9866872040        2.0207884726        4.7041183700
  H        16.3135280579        0.6161249515        6.4259654872
  H        17.6729659637       -1.2410424673        5.4332967088
  H        17.5649717948       -1.8768526478        3.1099702721
  C        15.2496065154       -1.0450466383       -1.1577815184
  C        14.1238071256       -1.6876403077       -1.8321450745
  C        13.1018588428       -2.3232775401       -1.0956861027
  C        13.1664617651       -2.3277320168        0.3598728626
  C        14.3284962857       -1.8577098297        1.0524136893
  C        17.2321973965        0.3978762875       -1.2256307933
  C        16.1236506494       -0.1842603615       -1.8583668647
  C        15.9436949433        0.2150178873       -3.2780036524
  C        15.2934853247        1.4076227536       -3.5528460782
  C        15.3681418040        2.0129691776       -4.8062203090
  C        16.1949391036        1.4771693038       -5.8475025672
  C        16.9378585913        0.3381751070       -5.5352504230
  C        16.7644742260       -0.2755901482       -4.3053743005
  H        17.4179317763       -1.0768674825       -4.1153192923
  H        17.7104119630       -0.0507213606       -6.1863836423
  H        16.3380289050        2.0276199947       -6.7778578739
  H        14.8880649384        2.9799700852       -4.9549771493
  H        14.8790766115        2.0471889168       -2.7340995083
  C        18.2931897894        1.1387662904       -1.8598704490
  C        19.4016962978        1.5713189184       -1.1180862451
  H        20.3071822485        2.0293496605       -1.5322773506
  H        18.2211334414        1.3261658774       -2.8713952215
  C        14.3238085851       -2.2782586967        2.4274878052
  C        14.9835239500       -3.4495896121        2.9020827886
  C        15.0976271322       -3.7536149895        4.2891628860
  C        14.5887631339       -2.8808644821        5.3033663087
  C        13.7663310601       -1.8436738788        4.7366570926
  C        13.5447248127       -1.5675777190        3.4217055396
  H        12.8627803774       -0.6817234962        3.0391678308
  H        13.2528267828       -1.1267263116        5.4458463750
  H        14.5986891503       -2.9950035047        6.3906089072
  H        15.7483054968       -4.5974929873        4.5254519773
  H        15.5172611026       -3.9891084292        2.0993009853
  C        12.1611714254       -3.0480362305        1.0691690859
  C        11.1748144100       -3.6869382953        0.4251580840
  C        11.1152061235       -3.6957178782       -1.0020676579
  C        11.9916961344       -2.9894408588       -1.7252005849
  H        11.9061123203       -2.9386774136       -2.8144293025
  H        10.3295233991       -4.2357344986       -1.4883165385
  H        10.4376280161       -4.2287696537        1.1091174495
  H        12.1829830292       -3.1412415412        2.1717472944
  C        14.1060819191       -1.9497713614       -3.3522977839
  C        14.9938481431       -2.9246647215       -3.8403406128
  C        15.0772352219       -3.1850480586       -5.2010394634
  C        14.2218012980       -2.6334357756       -6.1525895899
  C        13.2882710929       -1.6859190843       -5.6043625544
  C        13.1796930624       -1.4068539786       -4.2146758181
  H        12.5062231698       -0.6452199138       -3.9593636067
  H        12.5317728814       -1.3072827250       -6.2668199921
  H        14.3016082866       -2.9352909716       -7.2126635134
  H        15.7078693222       -4.0800030284       -5.4521182307
  H        15.7821850413       -3.3785072858       -3.1873986302
  C        11.4159349146        5.7023435586        0.4430291766
  C        10.4191153842        6.4628746383        1.1081193479
  C         9.4457521567        7.1977520163        0.3326083496
  C         8.4739834450        7.9271451999        1.0272353875
  C         7.6259991354        8.7733089734        0.3669039302
  C        10.5484087920        6.8415056788        2.5500667755
  C        11.4031125905        7.9833674838        2.8292878490
  C        11.5667635727        8.5505389577        4.1059590754
  C        10.8138178529        8.0291896349        5.1194718872
  C         9.8674883400        6.9436182725        4.9118346582
  C         9.7639282511        6.3577054444        3.6407198760
  H         8.5323070699        7.8468148148        2.1112264592
  H         7.1348187850        9.5511455640        0.9793849497
  H        12.0450783738        8.4790195865        2.0308944458
  H        12.1896864862        9.3418277492        4.2527857537
  H        10.8770231587        8.4519728835        6.1287990809
  H         9.2457115279        6.4505897347        5.7242941169
  H         9.1197153561        5.5038586596        3.3695316412
  C        11.5203216191        5.8044022408       -1.0293218440
  C        12.5759001573        5.1130074944       -1.6868566665
  C        13.6249031602        4.5936847473       -0.9604035799
  C        13.5521186003        4.5430387051        0.5015668398
  C        12.3752414591        4.9781368312        1.2123249192
  C         9.4671717459        7.1699526621       -1.0901630009
  C        10.5424822952        6.5723809066       -1.7698807538
  C        10.7441466936        7.1313556994       -3.1935682842
  C        11.5072040259        8.3277965920       -3.3721281796
  C        11.8010937128        8.8025590168       -4.7065198987
  C        11.2631573198        8.0699853206       -5.8006633229
  C        10.4445088247        6.9234365620       -5.6043119735
  C        10.1731703130        6.5083631458       -4.2949780153
  H         9.4989928108        5.6638777604       -4.1728540288
  H        10.0277767318        6.4615466546       -6.5119116622
  H        11.4335115187        8.3739326198       -6.8573235218
  H        12.4913124189        9.6852216338       -4.8713671155
  H        11.8415353232        8.8891202122       -2.4200081346
  C         8.4960247326        8.0643672557       -1.7182646165
  C         7.7196258893        8.9366935042       -1.0005384577
  H         7.1253902741        9.6171290925       -1.5989793830
  H         8.5763321172        8.0247465394       -2.7532610119
  C        12.2521534237        4.6677809018        2.6855425915
  C        11.4833253724        3.5766907860        3.1981307998
  C        11.7076284121        3.1628860705        4.5217026473
  C        12.6248490957        3.8996304884        5.3049123069
  C        13.3295099389        5.0557414166        4.8129606154
  C        13.2056996727        5.3001315731        3.4709958947
  H        13.8248105037        6.0547712739        2.9777701327
  H        14.1184664084        5.4714475200        5.4668579266
  H        12.6899604341        3.6582675398        6.3746372359
  H        11.0847208585        2.3609965327        5.0477587607
  H        10.7017472044        3.1295351227        2.5893435973
  C        14.7486498167        4.0455725100        1.2101388117
  C        15.9095223741        3.6811611901        0.5338604805
  C        15.9360633009        3.8179539615       -0.8840506678
  C        14.8546170553        4.1974525111       -1.6376030484
  H        14.8913797544        4.3123090970       -2.7093721620
  H        16.8666190494        3.5348094554       -1.3697333299
  H        16.7806881083        3.2133938753        1.0902274289
  H        14.6021540377        3.9239590771        2.2430506620
  C        12.6864339397        5.0411043198       -3.2126194850
  C        12.0851913162        3.9087366935       -3.8722008779
  C        12.2290700657        3.6936295312       -5.2831460865
  C        12.9982241808        4.6041674237       -6.0243476151
  C        13.6481483364        5.6805858272       -5.3492206240
  C        13.5017707280        5.8524784248       -3.9613990664
  H        13.9482886878        6.6343493638       -3.5309843893
  H        14.3131499572        6.3988112121       -5.8486508778
  H        13.0106603194        4.5471726657       -7.0923985834
  H        11.6762444771        2.8464958275       -5.7521244480
  H        11.4331169258        3.2565967495       -3.1948209542
