140

  C         5.2031060144       -1.2242750687       13.4058115635
  C         6.2489858937       -0.4795662786       14.0627871818
  C         7.3673132682       -0.0367659975       13.3596514299
  C         8.5748328396        0.5316575579       13.9523326199
  C         9.6108719008        1.0556012647       13.2441973100
  C         6.2063389082       -0.0602923015       15.5101266679
  C         5.2268681323        0.8641536678       15.8731620058
  C         5.1498115978        1.3193391052       17.1773795390
  C         5.9989084762        0.7745949559       18.1652644067
  C         6.9008842550       -0.2824015369       17.8627931382
  C         6.9729327672       -0.6795287089       16.5162080297
  H         8.5888333355        0.6505349544       15.0236131128
  H        10.4527030227        1.5381662995       13.8032750697
  H         4.6973432960        1.3896654039       15.0798959214
  H         4.4265978955        2.1191485563       17.5632153328
  H         5.8551967765        1.1046593954       19.1863810421
  H         7.5424942903       -0.7890641726       18.5990866552
  H         7.6733015480       -1.3791585768       16.1844740153
  C         5.2360507783       -1.3356948923       11.9121795610
  C         4.2441506593       -2.1458685262       11.2094572328
  C         3.1589533907       -2.6418451421       11.9281599252
  C         3.0985827370       -2.5881996925       13.3615482439
  C         4.1244412931       -1.9593390734       14.0734296527
  C         7.4122048515       -0.1800425247       11.8933535062
  C         6.3082389020       -0.7637599826       11.2638988745
  C         6.2609719467       -0.3923237628        9.8065377939
  C         5.2195654305        0.5284378299        9.4179499215
  C         5.1118426529        0.8914051109        8.0438596456
  C         5.9896339162        0.2626300441        7.0891922908
  C         6.9657164618       -0.6430356432        7.5388656232
  C         7.1278857555       -0.9665688171        8.9013351312
  H         7.9288014097       -1.5989703444        9.3171831855
  H         7.6695915985       -1.0440220103        6.8582896796
  H         5.7987195923        0.4079356428        6.0303723087
  H         4.3594209515        1.6166471608        7.6168848002
  H         4.5347125829        0.9705308894       10.1561737385
  C         8.4523827230        0.5538916782       11.1662568807
  C         9.5672778950        1.0847343822       11.8179830671
  H        10.3309220344        1.6358899953       11.2615255070
  H         8.5645063584        0.5542318935       10.0900941261
  C         4.1367247448       -2.2751424664       15.5556280373
  C         4.8385196987       -3.4505396940       15.9334321454
  C         4.9344421300       -3.9241595308       17.2347017557
  C         4.1778102454       -3.2592017037       18.1913203713
  C         3.4414906494       -2.0613195040       17.8587078156
  C         3.4666064506       -1.6076525645       16.5504737969
  H         2.8919685584       -0.7832080129       16.2191226143
  H         2.8712990044       -1.4323829547       18.5554439275
  H         4.0681452761       -3.4956936660       19.2622302934
  H         5.6053124016       -4.7286351390       17.4601583086
  H         5.3552097147       -4.0146838616       15.1437527977
  C         1.9414186278       -3.1223251839       14.0516292624
  C         0.9716128598       -3.8012970256       13.3729596058
  C         1.0412902293       -3.9376163925       11.9941720463
  C         2.0511952433       -3.3558059337       11.2787106130
  H         2.0458456646       -3.4312173444       10.1984218673
  H         0.3288338516       -4.6168323018       11.4823033627
  H         0.0064772333       -4.2478733186       13.8555134894
  H         1.8138427517       -2.9599428281       15.1210263893
  C         4.2493812946       -2.5742127562        9.7713227388
  C         4.9590683845       -3.7129735972        9.3213872900
  C         4.7015369023       -4.2639982999        8.0785930445
  C         3.7068512797       -3.6882031574        7.2056771214
  C         3.1609226359       -2.4361812489        7.6020179996
  C         3.4522848798       -1.8754803850        8.8515596919
  H         2.9744177170       -0.9513041243        9.2062853404
  H         2.5309357337       -1.9318589579        6.9245768442
  H         3.5929118864       -4.2120379507        6.2884605348
  H         5.2687248173       -5.1822424960        7.7659273205
  H         5.7820502542       -4.0976599165        9.9682931086
  C         1.4391038772        5.5602260550       13.6603919406
  C         0.4257184736        6.3178295416       14.3181261914
  C        -0.7214546376        6.7977615582       13.6009705110
  C        -1.6954937281        7.6741341160       14.1782764437
  C        -2.6647866894        8.3162809643       13.5195048172
  C         0.7751407369        6.9549919806       15.6504420031
  C         1.5727257918        8.1076443762       15.5981366601
  C         1.8071440823        8.7922628279       16.8338526370
  C         1.3388182348        8.3096004035       18.0434287649
  C         0.4770525958        7.2362291336       18.0340964848
  C         0.1556942554        6.5786590870       16.8202723022
  H        -1.7643839748        7.7425251697       15.2733874069
  H        -3.4337067460        8.9631515465       14.0100529874
  H         1.9080189251        8.4256524913       14.6057228613
  H         2.3239462285        9.7084852776       16.7972507117
  H         1.5635973077        8.7781485073       18.9801102792
  H        -0.0115601317        6.8277911631       18.9237643913
  H        -0.6324464080        5.8229406351       16.7772900759
  C         1.4353867560        5.4494512182       12.1990444297
  C         2.4569643403        4.6594303620       11.4942489575
  C         3.6057259612        4.2694690541       12.2325153581
  C         3.6142894991        4.3718504834       13.6794714371
  C         2.5189716571        4.9746756681       14.3559857715
  C        -0.6305979181        6.8436339697       12.1151678259
  C         0.4850543318        6.2081110141       11.4823231747
  C         0.6303950177        6.6233089560       10.0067394687
  C         1.4573928048        7.7237191322        9.7311386691
  C         1.5303146112        8.2230674874        8.4357378941
  C         0.7053683459        7.6213642387        7.4648087975
  C        -0.1500832080        6.5587089436        7.7851557874
  C        -0.1178537394        6.0062061503        9.0140992105
  H        -0.5480609304        5.0515986820        9.2674485903
  H        -0.8663764979        6.0277890035        7.1165792013
  H         0.6169262400        8.0136205459        6.4737177159
  H         2.0043498052        9.2012813347        8.2794550806
  H         2.0712168828        8.1009264813       10.6069811609
  C        -1.7435935100        7.4562883519       11.4699064181
  C        -2.7805881465        8.0896328484       12.1324604867
  H        -3.6555408193        8.5308432167       11.6277799783
  H        -1.7532197819        7.5116797988       10.3818082621
  C         2.3571763741        4.5526470759       15.8000997124
  C         1.5838032295        3.3697570048       16.1189438949
  C         1.5764454419        2.8028956246       17.4191576596
  C         2.4237335882        3.3737094714       18.4551459912
  C         3.1409824336        4.5625353586       18.1298385338
  C         3.1119016369        5.1647377596       16.8205840211
  H         3.6645055287        6.0559380153       16.6713385162
  H         3.8474739320        4.9730292293       18.9052230778
  H         2.3321922415        2.9875214146       19.4562588365
  H         1.0214903712        1.8310503353       17.4896710094
  H         0.9468696720        2.9159342466       15.3368620602
  C         4.7426341891        3.8176204530       14.3776133811
  C         5.8024224489        3.3140765461       13.6826761444
  C         5.7646827710        3.1627914438       12.2530361776
  C         4.7018766716        3.6109918488       11.5194145792
  H         4.5820162274        3.3806988790       10.4739105095
  H         6.5278062562        2.6215329789       11.7570464952
  H         6.6461643947        2.9274783648       14.2249915294
  H         4.9484237787        3.8019334144       15.4382525241
  C         2.4262114306        4.3555682050        9.9974270930
  C         1.6055814410        3.3787810575        9.5373024803
  C         1.6008812378        3.0551274259        8.1564772302
  C         2.4568241745        3.7184901639        7.2955562956
  C         3.1428907302        4.8478265410        7.7468300157
  C         3.2077100765        5.1681765852        9.0864668804
  H         3.7350862678        5.9633552280        9.5482802467
  H         3.7417043350        5.3502495488        7.0541508875
  H         2.6142195124        3.4555199573        6.2677878435
  H         1.0267709913        2.1870296553        7.8294334756
  H         0.9766291701        2.8884622405       10.2763807877
