140

  C         5.7750861430       -0.7076704204       16.0035087992
  C         6.7332091290        0.0176488035       16.7486693710
  C         7.8952795858        0.5534835549       16.1009770115
  C         9.0537087512        0.9202845420       16.8194506234
  C        10.0652377125        1.6340824735       16.2557632726
  C         6.6902458311        0.4017730954       18.2014962239
  C         5.6673630836        1.2951782817       18.6467671451
  C         5.5808012655        1.6719840369       19.9979260659
  C         6.5457113480        1.2499454740       20.9378974623
  C         7.5333932750        0.3519325989       20.5672503667
  C         7.5611353663       -0.0527504139       19.2039364571
  H         9.1833246463        0.6239376602       17.8148080740
  H        10.9621883831        1.8516126389       16.8888996953
  H         4.8931382812        1.5469598651       17.9810864315
  H         4.7125372920        2.3637682191       20.2516285423
  H         6.5596316762        1.5721022580       22.0214027272
  H         8.1985510688       -0.0471360827       21.3255917781
  H         8.3631347464       -0.7088194531       18.8540216813
  C         5.7892198246       -0.5863597821       14.5633303150
  C         4.7709527931       -1.1907234862       13.7677475806
  C         3.7085218239       -1.8355192620       14.4662472374
  C         3.7862490883       -2.0859357727       15.9008325655
  C         4.9075455674       -1.6333456708       16.6842039131
  C         7.8691316707        0.6722141872       14.6913323284
  C         6.8044506003        0.1851825775       13.8734914851
  C         6.7702009812        0.7564137390       12.4784424456
  C         5.9842694755        1.8331745902       12.0776458567
  C         6.0511472706        2.3082037865       10.7681509147
  C         6.8533117220        1.7603409377        9.7863776958
  C         7.6737218101        0.6920364937       10.1645294880
  C         7.6317619448        0.2491449131       11.5137496744
  H         8.3074732598       -0.5874736683       11.7372881249
  H         8.4632736471        0.2977994120        9.4317872362
  H         6.8256756886        2.1200936038        8.7379230960
  H         5.4937953422        3.2261867050       10.4878316650
  H         5.3347743644        2.3578964774       12.7320578793
  C         8.8826216784        1.5250443676       14.1036575175
  C         9.9926994207        1.9501337037       14.8295625022
  H        10.8607060185        2.4322306963       14.4472301745
  H         8.7588942780        1.7801490075       13.0626817999
  C         4.9683210489       -2.0708834475       18.1040817403
  C         5.7113213490       -3.1583875448       18.6279575929
  C         5.4762857378       -3.6751003889       19.9433676469
  C         4.5525359017       -3.0777729342       20.8056897997
  C         3.9272948148       -1.8717833019       20.3761459889
  C         4.0773690067       -1.4535306826       19.0648615713
  H         3.5200195014       -0.5588915633       18.8600867178
  H         3.2372152258       -1.3858970898       21.0516501857
  H         4.4531194247       -3.3749257903       21.8480076707
  H         5.9973948757       -4.5492479591       20.3305751923
  H         6.4204624870       -3.6492641825       17.9598025641
  C         2.7521104216       -2.7518738560       16.6092793255
  C         1.6748635296       -3.3139327240       15.9503187545
  C         1.5830649990       -3.1039147703       14.5105019329
  C         2.6251054312       -2.5300015348       13.7483932090
  H         2.6247727222       -2.4708043092       12.6854359507
  H         0.6900143746       -3.5861001239       13.9862755867
  H         0.8168052779       -3.8341558116       16.4212583680
  H         2.8743535925       -2.9920916534       17.6713263638
  C         4.8565439907       -1.3683754258       12.3743279488
  C         5.6291331093       -2.4385355185       11.8047236199
  C         5.5029698048       -2.7907833169       10.4731808795
  C         4.7369761201       -1.9703560666        9.6730673587
  C         3.9007391108       -0.9613735046       10.1903285853
  C         3.9650092113       -0.6763060107       11.5566275809
  H         3.5498286871        0.2048128403       11.9504267667
  H         3.2994091891       -0.4039393075        9.5250170732
  H         4.7198215084       -2.1840005970        8.5552339809
  H         6.2714260728       -3.5427835878       10.1830654917
  H         6.4259561473       -2.9667481883       12.3637981715
  C         2.1250783799        6.6345959422       16.1006719837
  C         1.0242081381        7.3187397956       16.7817967788
  C        -0.0688124082        7.8321110198       16.0701748436
  C        -1.0328292112        8.5515344209       16.8319849160
  C        -2.1318715976        9.0535044872       16.1904901249
  C         1.1529521611        7.6563738752       18.1699732741
  C         1.9291869057        8.7828330730       18.5581496159
  C         1.9824414279        9.2723947093       19.8869823705
  C         1.1404321421        8.6894632349       20.8773818030
  C         0.2874319459        7.5651726480       20.5345983909
  C         0.2974715627        7.1380503782       19.2247912429
  H        -1.0045997212        8.5682322909       17.9221428421
  H        -2.9785448048        9.3400531360       16.7431477425
  H         2.6133386343        9.2839144951       17.8393222645
  H         2.6264644226       10.0944589748       20.0659353773
  H         1.1988698651        9.1168994648       21.8811479539
  H        -0.4858746334        7.1828901426       21.1587825757
  H        -0.2552556778        6.2432554933       18.9974681884
  C         2.1157649584        6.7370061600       14.5679347469
  C         3.2469902070        6.0911060883       13.9544579356
  C         4.2433306045        5.3955264423       14.7150457582
  C         4.2557285625        5.5109961894       16.1706385631
  C         3.1341297372        6.0231563623       16.8432204871
  C        -0.1848140417        7.8314974071       14.5863093143
  C         0.9817399473        7.2694753517       13.9155455261
  C         1.0916635262        7.7073703913       12.5177112585
  C         1.8885679968        8.8037528575       12.2456285241
  C         2.0090645618        9.3475817915       10.9196286710
  C         1.2042727655        8.7687728090        9.9249617809
  C         0.3367397201        7.7292878947       10.2089111699
  C         0.3085906542        7.1724033101       11.4987335726
  H        -0.3438198142        6.3021219980       11.6205415520
  H        -0.4267664129        7.4540641798        9.5163670098
  H         1.1963477143        9.3130180681        8.9704194153
  H         2.7287943853       10.1670995144       10.7263547716
  H         2.4292420825        9.2039488894       13.0691700287
  C        -1.3273312004        8.4507794924       13.9685474924
  C        -2.2919278351        9.0162726908       14.7869131826
  H        -3.1658787524        9.4260542938       14.3256653614
  H        -1.2144572835        8.5149553734       12.8626845327
  C         3.1064577167        5.6903290104       18.3258168878
  C         2.2875979950        4.6081008553       18.6821157757
  C         2.3110712269        4.0877320489       19.9766638088
  C         3.1465343523        4.6511225640       20.9172325004
  C         4.0233780903        5.6838722469       20.5689632612
  C         3.8974928297        6.2829752874       19.2854972369
  H         4.6133929523        7.0696487654       19.0235908839
  H         4.6623542916        6.1186747531       21.3385975980
  H         3.1764588539        4.3067700641       21.9718165585
  H         1.5033034132        3.4518392958       20.2733794936
  H         1.6521475244        4.1854220940       17.8919704247
  C         5.3303980639        4.8015312281       16.8812492899
  C         6.0816990500        3.8509083433       16.2633456256
  C         6.1135472399        3.8246101225       14.8354243934
  C         5.2440047112        4.6296949519       14.1168441338
  H         5.4803341263        4.5440901834       13.0700912573
  H         6.9043635238        3.2696888263       14.3922595244
  H         6.6863132786        3.1475137694       16.8582270544
  H         5.5020820900        4.9638192538       17.9093032813
  C         3.2896939425        5.7307189118       12.4581960906
  C         2.3851594926        4.7283912356       12.0339465644
  C         2.1264626967        4.4219754159       10.7150060586
  C         2.8422208945        5.2105279899        9.7792032210
  C         3.7860110416        6.1321522139       10.1934979823
  C         3.9936373362        6.4332680867       11.5256981796
  H         4.6873151087        7.1761945256       11.8635727425
  H         4.3868255890        6.6490247284        9.4943122265
  H         2.6522463540        5.0106320694        8.7297390656
  H         1.4726033641        3.6183338840       10.3740481743
  H         1.7954677719        4.0812271855       12.7167946988
