140

  C        12.5168710751        1.0887594930        1.3864425906
  C        13.5960580157        1.7093477905        2.0474558187
  C        14.7174340764        2.1825019118        1.3196034338
  C        15.8831599561        2.7439106836        1.9601506221
  C        16.9194218977        3.2792769479        1.2205530574
  C        13.5579921860        2.0565279149        3.5516425098
  C        12.8886476560        3.2093323450        3.9377139868
  C        12.8616236058        3.6334938443        5.2623874856
  C        13.3733847966        2.7875474837        6.2423778868
  C        14.2072065717        1.6569426912        5.9032841255
  C        14.2651933386        1.2911720637        4.5585011849
  H        15.9423736852        2.6627128235        3.0515502723
  H        17.7174234443        3.6764570133        1.7780172603
  H        12.3962868271        3.8796883839        3.2445482123
  H        12.2400952017        4.4571788617        5.5901394261
  H        13.4384548485        3.0676877810        7.2729358815
  H        14.6387098365        1.0809280642        6.7338706173
  H        14.8196347701        0.4316293562        4.1580563784
  C        12.4412204324        1.0960058621       -0.1433509904
  C        11.4018430072        0.3902517301       -0.8383057052
  C        10.3324461637       -0.0863816880       -0.0580139824
  C        10.3288007457       -0.0289884745        1.3582250735
  C        11.4573238613        0.4395157446        2.0712319764
  C        14.5904857334        2.3417724167       -0.1439399321
  C        13.4451804268        1.8759983785       -0.8659882153
  C        13.3744082884        2.2714934949       -2.3606448681
  C        12.4130428837        3.1639256060       -2.8563587773
  C        12.4949013318        3.6349702957       -4.1651097169
  C        13.4404412445        3.1893858573       -5.0572922585
  C        14.4039669588        2.2622233921       -4.6011957636
  C        14.3662410396        1.8267699168       -3.2567008572
  H        15.1657692137        1.2168093486       -2.9264601105
  H        15.1503185879        1.8655022003       -5.2406593898
  H        13.3974097770        3.4561602630       -6.1132855780
  H        11.7945621204        4.4043839877       -4.4320114056
  H        11.6178777826        3.5369852176       -2.2135531885
  C        15.6714805050        3.0566194096       -0.8338768623
  C        16.7611163844        3.5228644935       -0.1537853989
  H        17.5497857218        3.9381245445       -0.7082278184
  H        15.5747975494        3.2071616500       -1.9178953106
  C        11.6485805816        0.0471192387        3.4941550477
  C        12.4623598370       -1.0245104121        3.7583896957
  C        12.6870293836       -1.6139114777        5.0025862651
  C        11.9583327879       -1.1262296560        6.1153521334
  C        11.0932603588       -0.0517829156        5.8883104395
  C        10.9345377282        0.5366233408        4.6384154188
  H        10.2819475430        1.3554551855        4.4028166800
  H        10.5565369967        0.3782206620        6.7276200161
  H        12.0460335599       -1.4784201561        7.1352461692
  H        13.4256467653       -2.4732001365        5.0931834253
  H        13.0895673612       -1.3280364592        2.9576377301
  C         9.3188542526       -0.7349001243        2.0640809967
  C         8.2214639344       -1.2300518232        1.4341618632
  C         8.1121434020       -1.2758763921        0.0069001851
  C         9.1574856917       -0.6913550143       -0.6776408791
  H         9.1377184443       -0.5385179135       -1.7083841863
  H         7.2869802471       -1.7305526483       -0.5469467143
  H         7.5327198551       -1.7499597229        2.0753722664
  H         9.5398437238       -0.9522371283        3.0949371007
  C        11.4650156359        0.0767955294       -2.3043031117
  C        12.3690585696       -0.9612675448       -2.7286374644
  C        12.3258232433       -1.4052831291       -4.0827487823
  C        11.4989211598       -0.7714465450       -4.9863912625
  C        10.6911323612        0.3080308678       -4.6161524765
  C        10.6581924327        0.7386935801       -3.2330668101
  H         9.9822397963        1.5361962260       -2.9347903524
  H        10.1053069011        0.8920910085       -5.3507884231
  H        11.6987210552       -0.8459062506       -6.0259125724
  H        13.0000719241       -2.2540653537       -4.3634623110
  H        13.0814214624       -1.4056401487       -2.0604511401
  C         9.0726818114        8.1442307592        1.4860711067
  C         8.0363215238        8.8261030015        2.1731338758
  C         6.9619321303        9.2465107757        1.4310912114
  C         5.6977508933        9.7309106681        1.9829678075
  C         4.6369639795       10.2070156289        1.2802636530
  C         7.9960024730        9.1217016442        3.6118719438
  C         8.9337458165       10.0494899417        4.1797274101
  C         9.0121406549       10.2607764969        5.5238718710
  C         8.1139371274        9.6195095441        6.3665999790
  C         7.0853628400        8.8401686284        5.8375929065
  C         7.0284895759        8.5977727177        4.4273096704
  H         5.5504135438        9.6884004715        3.0214661743
  H         3.7291228576       10.4876079695        1.7291541038
  H         9.6921923736       10.4517326852        3.5430408752
  H         9.8526734608       10.7122247439        6.0245551761
  H         8.0645483742        9.9555184225        7.3870619804
  H         6.3248561828        8.4535007966        6.4684249830
  H         6.2971965725        7.8446931647        4.0408852252
  C         9.1642264109        8.1959224063       -0.0059741068
  C        10.2007417804        7.4489463776       -0.7200636212
  C        11.2127286912        6.9234823036        0.0876319735
  C        11.1750431507        6.9806966573        1.5548041458
  C        10.1015654927        7.4861688591        2.2694070940
  C         6.9467449170        9.2777391515       -0.0366261491
  C         8.1415459550        8.8954708595       -0.7493221394
  C         8.3431960975        9.2579519004       -2.1310315483
  C         8.9207622299       10.5533176729       -2.5222185292
  C         8.9052622562       10.9490136897       -3.8248613967
  C         8.2464701078       10.1517877741       -4.7938638038
  C         7.6093929668        8.9427454235       -4.4311766366
  C         7.6572736242        8.5731416384       -3.0493427481
  H         7.1680948344        7.6222171378       -2.8353332520
  H         7.1201190701        8.3434551891       -5.1823084131
  H         8.1764180738       10.6824551790       -5.7829242853
  H         9.3921342579       11.8591075655       -4.1061413604
  H         9.3654483576       11.0385274210       -1.6519773248
  C         5.8518721671        9.9366686152       -0.7809597216
  C         4.7241934961       10.3596419305       -0.1369269951
  H         4.0175833164       11.0206513726       -0.6741810635
  H         5.9045675189       10.1604981414       -1.8168157565
  C        10.0128778991        7.0729171798        3.7344076695
  C         9.2543102077        6.0057987472        4.2286932475
  C         9.4095821947        5.4409106918        5.4901509781
  C        10.3214576742        6.0332936633        6.3687007169
  C        10.9898498534        7.1060498183        5.8838283902
  C        10.9470416583        7.6910652710        4.5982618317
  H        11.5485000689        8.5791514964        4.3837686958
  H        11.7075113834        7.6256938324        6.5348948006
  H        10.6178054149        5.6063649029        7.3294027789
  H         8.6708232759        4.6843379395        5.8038517735
  H         8.6862915439        5.5224459026        3.4645183243
  C        12.2904743040        6.4502244172        2.2105597741
  C        13.3325754765        5.8091250108        1.5591611950
  C        13.3887601332        5.7568707992        0.1564574254
  C        12.3704787783        6.3506413484       -0.6034942988
  H        12.3381769167        6.3067230250       -1.7045527673
  H        14.2919795691        5.4087123586       -0.3494283181
  H        14.1824939074        5.4449026003        2.1316771731
  H        12.4354122721        6.4452779927        3.2968142316
  C        10.1839242946        7.1151472696       -2.1577648644
  C         9.5013015191        5.9288594874       -2.4743198337
  C         9.4189709006        5.5790774495       -3.8014549879
  C         9.9121927111        6.4044181088       -4.8115622945
  C        10.6203102287        7.5655498267       -4.4687868266
  C        10.8212530736        7.8927799861       -3.1447996829
  H        11.2586189141        8.7967303905       -2.8227814971
  H        10.9049613368        8.2256136859       -5.2390695342
  H         9.7195017872        6.1867973380       -5.8266297086
  H         8.9757465100        4.6589758261       -4.1649856749
  H         9.0472567489        5.1896091330       -1.7487610894
