140

  C        14.7267307531       -0.7527420212        0.7241524901
  C        15.7571822361       -0.0843126343        1.4521876759
  C        16.8412500849        0.6080274128        0.7673485045
  C        17.8326790984        1.2609985985        1.4629129056
  C        18.8234347882        1.9546643936        0.7636613216
  C        15.5863095953        0.3439361127        2.8467550888
  C        14.8815280107        1.5376135903        3.1128304693
  C        14.7733838618        2.0270785935        4.4189338544
  C        15.6095938646        1.5542335325        5.4398296996
  C        16.4218630217        0.4378404812        5.1565219045
  C        16.3999487740       -0.1844448144        3.9193230293
  H        17.8123145594        1.2964913003        2.5367415691
  H        19.5951531259        2.4645763109        1.2823407778
  H        14.2881617872        2.0883047252        2.3426391378
  H        14.1507606578        2.8912497977        4.6237042022
  H        15.6112971993        1.9343704102        6.4340394569
  H        17.1481483165       -0.0301749520        5.8370666763
  H        16.9812620163       -1.0369934669        3.6596883520
  C        14.8426126395       -0.7612121150       -0.8064738556
  C        13.8859229121       -1.4562828277       -1.6182954828
  C        12.8028068340       -2.0097648127       -0.9748006783
  C        12.5911807045       -1.9152877927        0.4625649612
  C        13.6049920455       -1.3501686853        1.2876635698
  C        16.8484333242        0.6401062009       -0.6821993924
  C        15.7067297344        0.1246420206       -1.4159261369
  C        15.6863558269        0.5431395233       -2.8825983967
  C        14.8677584126        1.5681827937       -3.3190818396
  C        14.9798104665        2.0006184226       -4.7321911143
  C        15.9362421714        1.4007677989       -5.5132330654
  C        16.7058620900        0.3494948566       -5.0291752983
  C        16.5543702890       -0.1125877494       -3.7302322846
  H        17.2653609519       -0.8803030358       -3.4641291450
  H        17.4040256152       -0.1771366967       -5.6717908306
  H        15.9773822134        1.6922771555       -6.5401664082
  H        14.3072239234        2.7404115429       -5.1549912046
  H        14.2401354303        2.0947524904       -2.5916151866
  C        17.9157656061        1.2410534280       -1.4301144398
  C        18.8564615560        1.9418012658       -0.6671399082
  H        19.7174645763        2.3917978186       -1.1894801530
  H        17.9669054570        1.2130373220       -2.4791432945
  C        13.4718945982       -1.6595282125        2.7686733979
  C        14.2386671855       -2.6499645745        3.3493441348
  C        14.2280002157       -2.8793096980        4.7761257638
  C        13.3037889270       -2.2059925163        5.5480946363
  C        12.4081017127       -1.2704310186        4.9976295323
  C        12.4894142470       -1.0632435996        3.5896628980
  H        11.8017683821       -0.2759291989        3.1423624152
  H        11.6466690112       -0.8574751294        5.6077549173
  H        13.1957883107       -2.3895179017        6.5799409463
  H        14.7430511385       -3.8543655755        5.1843352836
  H        15.0199223034       -3.2110808100        2.7578331806
  C        11.3783248602       -2.5210378773        1.0139994993
  C        10.4534941726       -3.2292876381        0.2536876551
  C        10.6158274340       -3.2602424385       -1.1717124489
  C        11.7426143339       -2.6498273523       -1.6767726107
  H        11.8135626041       -2.6361917269       -2.8031921355
  H         9.8518804401       -3.8284265176       -1.6630757232
  H         9.7112617309       -3.7833833960        0.7446060616
  H        11.2456264485       -2.5368158245        2.1041166701
  C        14.1276857343       -1.8373340305       -3.0115626692
  C        15.1387838579       -2.7290202667       -3.4466396841
  C        15.3042880714       -3.0582259825       -4.8341550427
  C        14.4198761057       -2.5354425436       -5.7639392885
  C        13.4725231526       -1.5074769174       -5.3925922411
  C        13.3500539959       -1.2276911175       -4.0641861232
  H        12.6326233367       -0.4466265602       -3.7435367597
  H        12.7593846584       -1.0244294450       -6.0699646830
  H        14.5715178478       -2.7882252233       -6.7847871333
  H        16.0426166140       -3.8777964272       -5.0693456469
  H        15.8448747346       -3.1159763785       -2.7123276919
  C        11.1366694006        6.5517476447        0.8115048629
  C        10.0581231930        7.3137337188        1.3749333744
  C         9.0445206125        7.8814875062        0.5633759590
  C         7.8895724135        8.4203403737        1.1577966265
  C         6.9330354188        9.1013396914        0.4785274687
  C        10.1467534130        7.6874707832        2.8306073211
  C        10.8202993633        8.9264181386        3.1271609883
  C        10.8586926931        9.3816670233        4.3960517823
  C        10.2592946893        8.6719103295        5.4662260284
  C         9.4376157916        7.5625348921        5.1584016929
  C         9.4618064660        7.0308623638        3.8581806739
  H         7.7654783468        8.2793657435        2.2134641945
  H         6.0659636327        9.5584573595        0.9857202756
  H        11.4419228262        9.3713299534        2.4085954612
  H        11.4203245779       10.2608534820        4.5843546256
  H        10.2721689862        9.1413584937        6.4237806474
  H         8.9411013674        7.0555616028        5.9227935775
  H         8.9627081247        6.0657970197        3.6317709183
  C        11.2784435196        6.5482097330       -0.6476816712
  C        12.3338801852        5.8515805067       -1.2696291132
  C        13.3653596658        5.1599120988       -0.5211232760
  C        13.2487869549        5.1975739853        0.9771099162
  C        12.1061743320        5.8268889088        1.5981981675
  C         9.1900697984        7.9628082077       -0.9005463180
  C        10.3096447564        7.2756225350       -1.4784204258
  C        10.5800427499        7.6266493835       -2.9071787219
  C        11.6024075824        8.5037809695       -3.2380781341
  C        11.7225886814        8.9627039691       -4.5749910452
  C        10.8401027939        8.6021637165       -5.5760215514
  C         9.8270718652        7.6508594951       -5.2506565637
  C         9.6784750351        7.1983835849       -3.9064840438
  H         8.7970016494        6.5730638588       -3.6842910396
  H         9.1426730486        7.4244468633       -6.0082144449
  H        10.8544924354        8.9086248257       -6.6552592805
  H        12.5085684771        9.5816775525       -4.8708718150
  H        12.2440283894        8.8741979554       -2.4619895487
  C         8.1204116493        8.6248406275       -1.6180811590
  C         7.0984631978        9.2349296953       -0.9403422336
  H         6.3746281943        9.7994102811       -1.4270916200
  H         8.0950957070        8.4451877107       -2.7149440415
  C        12.0401792787        5.6232383867        3.1082943252
  C        11.3559948412        4.5520593461        3.6159552293
  C        11.5251936500        4.1711248996        4.9542259789
  C        12.3712847487        4.8813052341        5.7729121761
  C        12.9115185277        6.0466956686        5.2838978754
  C        12.7597975960        6.5031944159        3.9674970214
  H        13.1988865510        7.4753272339        3.6528844624
  H        13.5985854398        6.5540060756        5.9229254949
  H        12.5679773695        4.4377468000        6.7551915060
  H        10.9588163415        3.3542627028        5.3805829285
  H        10.7858315632        3.8884968984        2.9724787500
  C        14.3510041847        4.7862713724        1.6470391855
  C        15.4435303155        4.1797625561        1.1171831521
  C        15.4758067294        3.9169888095       -0.2880295858
  C        14.4707900101        4.3920360042       -1.0942121702
  H        14.4451207373        4.2479034691       -2.1855991134
  H        16.3413522968        3.4432341442       -0.7429602185
  H        16.2167898373        3.7740240700        1.7573083363
  H        14.3796564227        5.0553411490        2.6724530755
  C        12.4157668265        5.5865442575       -2.7327069206
  C        11.5172223450        4.6957879903       -3.3789322729
  C        11.7570172948        4.4060311217       -4.7316772635
  C        12.8487825337        4.9133773243       -5.3535164379
  C        13.8690292606        5.6460846081       -4.6510937970
  C        13.5453861058        6.0699404596       -3.3608111485
  H        14.2199530843        6.6356173250       -2.7779753424
  H        14.7507538805        6.0789305988       -5.2237100385
  H        12.9840587876        4.6928832671       -6.4081835072
  H        10.9711120125        3.8366711631       -5.2328743989
  H        10.6504911172        4.1815220758       -2.9261608103
