140

  C         4.7447814912       -1.4371273252       13.9403570481
  C         5.7037323511       -0.5983073975       14.6021406275
  C         6.7907180350       -0.0214844614       13.8712455965
  C         7.8084933151        0.6815120076       14.5528047780
  C         8.8852449426        1.2348303795       13.9004865646
  C         5.6808813802       -0.3225394039       16.0789355293
  C         4.7602860712        0.6368372842       16.6556726779
  C         4.6905981833        0.7963928360       18.0148253966
  C         5.6034093397        0.2166502349       18.8373368554
  C         6.6849415388       -0.4730565919       18.3459468342
  C         6.6904434360       -0.8427857603       16.9579521775
  H         7.6601304233        0.8647178844       15.6514311871
  H         9.6716604443        1.7006401531       14.5192105271
  H         3.8892239718        1.0683686928       16.1031907025
  H         3.8788936946        1.3670046716       18.4057477248
  H         5.5686733100        0.3333137636       19.9468509533
  H         7.5110528275       -0.8744621932       19.0405857068
  H         7.4910056304       -1.4428452167       16.4873285967
  C         4.7496966005       -1.4214230241       12.4397537039
  C         3.7177118025       -2.1281529445       11.7658784904
  C         2.5954774381       -2.6209244493       12.4367520004
  C         2.6022800647       -2.7057889165       13.8936438905
  C         3.7403110828       -2.1254965467       14.6200081481
  C         6.8099153712       -0.0683019208       12.4384273512
  C         5.6964990787       -0.6148175234       11.7319954425
  C         5.5530339071       -0.1786700004       10.2835385992
  C         4.9689619372        1.0439580810        9.9750293275
  C         5.2578565407        1.6757199336        8.7387647761
  C         6.1446915103        1.0953702430        7.7576832080
  C         6.5931463922       -0.1843294492        8.0296325688
  C         6.3270621391       -0.7844059252        9.2780630470
  H         6.8629430856       -1.7050064824        9.4463203694
  H         7.3747177015       -0.6704049350        7.3969728972
  H         6.4825732026        1.6402497758        6.9082082377
  H         4.8920789138        2.7060580887        8.6925980840
  H         4.4112949408        1.5010790661       10.8177042981
  C         7.9358971345        0.4492911765       11.7887621847
  C         8.9712080769        1.0249947650       12.4801769687
  H         9.7436819739        1.5115298022       11.9130300673
  H         8.0119676910        0.3079091030       10.7372101074
  C         3.8947559954       -2.4404062781       16.0575858954
  C         4.8368227682       -3.3709305532       16.5753516024
  C         4.7434873509       -3.8632885074       17.8823555400
  C         3.8129800386       -3.3195015288       18.7578760548
  C         2.8216809187       -2.4768113060       18.2656571218
  C         2.8875416590       -1.9777578634       16.9575260565
  H         2.2200869505       -1.1903360753       16.5533542654
  H         1.9406617177       -2.3942928819       18.8756809721
  H         3.7641456378       -3.7245719578       19.7477195214
  H         5.4518143255       -4.5509183934       18.2557849525
  H         5.5258411742       -3.7807064885       15.9352538919
  C         1.4667109377       -3.3350203952       14.5252366791
  C         0.5371682733       -4.0342209879       13.8301326536
  C         0.5311418182       -3.9103501478       12.3666599532
  C         1.5309385033       -3.2776719745       11.7837053290
  H         1.5180825738       -3.2011247607       10.6710402018
  H        -0.2738489088       -4.3736950479       11.7881888972
  H        -0.1114702754       -4.5696934523       14.5280330943
  H         1.3846310315       -3.2982715172       15.6202170518
  C         3.8933557342       -2.3591019680       10.2559783989
  C         4.5147688470       -3.5588221953        9.8230576575
  C         4.4643738426       -3.7794012610        8.4449638839
  C         3.9310824404       -2.8365560739        7.5017148495
  C         3.2696711768       -1.7302847899        8.0198866202
  C         3.2202496346       -1.5155334616        9.3877626362
  H         2.7584605151       -0.6624223743        9.8782143449
  H         2.7594329094       -1.0289472585        7.3646705613
  H         3.9792363847       -3.0559940038        6.4394446013
  H         4.7664350461       -4.7817532848        8.1451372184
  H         4.9663069407       -4.2961875423       10.4930099897
  C         1.2680257150        5.9397462534       13.8887447750
  C         0.1597095715        6.5597668615       14.5519521156
  C        -0.9249903258        7.1253908867       13.8775257003
  C        -2.0551503708        7.7543359462       14.6079586877
  C        -3.0229223401        8.4425564726       13.9199604292
  C         0.2442339193        6.8633045585       16.0478480248
  C         1.0607421076        7.9145455246       16.4713796374
  C         1.1125311567        8.2636740001       17.7936188506
  C         0.1730810338        7.8095281646       18.6637692004
  C        -0.7457278088        6.8129118312       18.2393277544
  C        -0.6698913919        6.3532743305       16.9108165825
  H        -2.0348940117        7.6975332453       15.7097373407
  H        -3.8739475773        8.8243417023       14.4954039944
  H         1.8844232903        8.3134397335       15.8617791361
  H         1.8970975754        8.9315130066       18.2062755155
  H         0.1534996462        8.1280808025       19.7263976908
  H        -1.6301843116        6.5271055642       18.8146337049
  H        -1.2126690985        5.5022212577       16.5237866552
  C         1.2689264104        5.9779878569       12.4179509669
  C         2.2992464881        5.2564142321       11.7795335185
  C         3.3362725423        4.6869837423       12.5292195612
  C         3.3387826417        4.6587438935       13.9892124802
  C         2.2052982649        5.2563882879       14.6785189948
  C        -0.9299828504        7.2082533666       12.4480039904
  C         0.2164743531        6.7120409079       11.7336060160
  C         0.4419007037        7.0069687987       10.2110303044
  C         1.2786450896        8.1500824126       10.0070435305
  C         1.3714649422        8.6943501263        8.7304041272
  C         0.7288502219        8.0467578378        7.6819220975
  C        -0.1823924500        7.0118856241        7.8906809345
  C        -0.3201392366        6.4492195751        9.1760123377
  H        -1.1069383658        5.7068653337        9.4384703095
  H        -0.8207996590        6.5263977168        7.1390699149
  H         0.8848206822        8.4424313639        6.6793985208
  H         1.8948397177        9.6172039931        8.6096736868
  H         1.7696639505        8.5912613810       10.8335450940
  C        -2.0446038451        7.8945351368       11.7878956534
  C        -2.9843700792        8.5454604115       12.4957904986
  H        -3.9720276023        8.9696437452       12.0487637806
  H        -2.0601211340        7.8210831163       10.6998241884
  C         2.0680085701        4.9100514218       16.1269624094
  C         1.2525304018        3.8025794791       16.4838823060
  C         1.3184833143        3.3264935940       17.8274167896
  C         2.0116602718        4.0513522315       18.8392383762
  C         2.6949691029        5.2075890124       18.4909328956
  C         2.7463942412        5.5982414565       17.1617009074
  H         3.2675255003        6.5152030728       16.9516533089
  H         3.2205072185        5.7248332293       19.3527607731
  H         1.9298170395        3.7395159144       19.8728840568
  H         0.6707182743        2.4664125051       18.0542459547
  H         0.6031961913        3.3717900637       15.7130757691
  C         4.3599850080        3.9688582935       14.7154193997
  C         5.4073903787        3.3237672561       14.0322834560
  C         5.3721033517        3.2990674505       12.5787467604
  C         4.4086330845        3.9696465408       11.8260892373
  H         4.4308251468        3.9955010520       10.7768705293
  H         6.2397643749        2.8373286349       12.0836388082
  H         6.2631191001        2.8194668016       14.5592690906
  H         4.3668397875        3.9395937530       15.8029390588
  C         2.1737413131        4.7568254987       10.3537429287
  C         1.3388769094        3.6811890611       10.0680662094
  C         1.0754999085        3.1519168016        8.7664301977
  C         1.8258011590        3.6618334237        7.7133197664
  C         2.7096882521        4.7056337311        7.9160228321
  C         2.8428069149        5.2750240060        9.1900495245
  H         3.4997307583        6.0894104153        9.3396409672
  H         3.3477722865        4.9502628524        7.1181916385
  H         1.6736238471        3.3591754881        6.6832829710
  H         0.4116539834        2.2845278725        8.5929859782
  H         0.7720950865        3.2413067235       10.9114901416
