140

  C         4.5458121600       -0.2233566346       15.9636191033
  C         5.6363130905        0.4143928616       16.7275003012
  C         6.7495041220        0.9819218957       16.0776534168
  C         7.7495178863        1.6776438504       16.8441418814
  C         8.6893213665        2.4547415652       16.1876467597
  C         5.5316038601        0.6782233030       18.2235575699
  C         4.7837558110        1.8548802364       18.5792332653
  C         4.7591510859        2.3061966712       19.8845940174
  C         5.5361115191        1.6080922715       20.8609746329
  C         6.2424302697        0.4527059131       20.5214913519
  C         6.2901881216       -0.0133387404       19.1968942163
  H         7.6805021434        1.8480290571       17.9384706370
  H         9.4025772947        3.0379903523       16.8062214744
  H         4.2145360648        2.3247564550       17.8101756338
  H         4.2643027807        3.2462371324       20.2000371475
  H         5.6240468038        1.9487873251       21.9817902565
  H         6.8180412063       -0.1033716806       21.2608104109
  H         6.8853817410       -0.9060065789       18.8895026357
  C         4.6265125523       -0.1911628647       14.5383307467
  C         3.7148496994       -0.9364781639       13.7450766831
  C         2.5423011091       -1.3651895832       14.4227909983
  C         2.3871623819       -1.2899134318       15.8152685387
  C         3.4085822676       -0.8326676619       16.5978600637
  C         6.7895387180        1.0365093132       14.6706417723
  C         5.7336140846        0.4796110486       13.9195612173
  C         5.6762182440        0.8831860844       12.4954294024
  C         4.6748812337        1.8341930741       12.2113800000
  C         4.4688931859        2.3696297400       10.9354310553
  C         5.3307054683        1.9960489818        9.9454095407
  C         6.3497102505        1.0139704818       10.1935410992
  C         6.4975695866        0.4400077260       11.4403284092
  H         7.2450620072       -0.3786160910       11.5270111515
  H         7.0947807701        0.6676740437        9.4258817318
  H         5.1793182043        2.3613215665        8.9363934319
  H         3.6725784878        3.1012174918       10.7505689629
  H         3.9923029519        1.9391814366       13.0803528575
  C         7.8589066658        1.7488979804       14.0229787393
  C         8.7492308799        2.4640374188       14.8045541859
  H         9.5346619285        3.0723255775       14.3156921854
  H         7.9112457015        1.9023040596       12.9645075280
  C         3.4558206037       -1.1988142026       18.0490897752
  C         4.2893506582       -2.1852428597       18.5832681920
  C         4.2492294082       -2.6193509157       19.8496414556
  C         3.3519874539       -1.9500567332       20.7484232104
  C         2.6108442929       -0.8569691281       20.3594748625
  C         2.6112319813       -0.5249614706       18.9541296862
  H         1.9538614174        0.3073578747       18.5887892689
  H         1.9446164436       -0.3013507529       21.0618878991
  H         3.3412497633       -2.2495103378       21.7847945893
  H         4.8742887485       -3.4824933147       20.1437873232
  H         4.9106117404       -2.7224794595       17.8521698250
  C         1.1527942269       -1.7948091906       16.3607956159
  C         0.1839974587       -2.3408340405       15.6340009612
  C         0.4073393865       -2.6063602576       14.2388971792
  C         1.5559198102       -2.0706327857       13.6543639896
  H         1.7987972670       -2.2779496803       12.6077726600
  H        -0.2767135721       -3.3014075732       13.7020533666
  H        -0.7441056463       -2.6919353976       16.0621134938
  H         1.0540739818       -1.6311979391       17.4124100016
  C         3.6418656143       -1.0699066471       12.2154023947
  C         4.4076553740       -2.1989768827       11.7384727865
  C         4.3789973982       -2.5836645361       10.4040992820
  C         3.5566682352       -2.0336093745        9.4794055778
  C         2.7972445521       -0.9503498233        9.9270877088
  C         2.8263450054       -0.4750613128       11.2688098536
  H         2.1766792788        0.3880086292       11.5838553958
  H         2.2129380348       -0.4909377647        9.1235404306
  H         3.3824013423       -2.3934588844        8.4599724587
  H         4.9545866271       -3.4578835336       10.1792321460
  H         5.0623541350       -2.6328172257       12.4365831651
  C         0.9225307012        7.3059341437       15.6524665893
  C        -0.0515811243        8.0832875546       16.3008842714
  C        -1.1617714199        8.6365766053       15.5696781871
  C        -2.3054208219        9.0980266342       16.2154322717
  C        -3.3715748272        9.6582111747       15.5766745996
  C        -0.0560665001        8.2779174599       17.7986048176
  C         0.6763677158        9.3931789982       18.1843386858
  C         0.6393537519        9.8041746858       19.4683527144
  C        -0.0083778439        9.0446317828       20.4810734708
  C        -0.7378209799        7.9543455397       20.1323722650
  C        -0.8366126460        7.5555902729       18.7473074157
  H        -2.3797147754        8.8433616284       17.2597688948
  H        -4.1753750183        9.9330698076       16.2270696672
  H         1.0834110963        9.9878630776       17.3316015649
  H         1.1244284268       10.6885227633       19.8060067331
  H        -0.1189226073        9.3964348118       21.4826080589
  H        -1.2251154805        7.3886345909       20.9125326305
  H        -1.3885407592        6.6831782225       18.4132265963
  C         0.9174384968        7.2011139488       14.1899401251
  C         1.8254174350        6.3957860401       13.5037080385
  C         2.9460857011        5.8283571955       14.2341302937
  C         3.0092647848        5.9173627771       15.6955180616
  C         1.8989996751        6.5468080561       16.4212586345
  C        -1.0919094282        8.7050903680       14.1258830666
  C        -0.0461856511        8.0955129294       13.4609938107
  C         0.1050807858        8.3799801393       12.0345684369
  C         1.0177101230        9.3707651602       11.6488568869
  C         0.9903637675        9.9572772041       10.3726808039
  C         0.1559444259        9.4160878248        9.3794142612
  C        -0.7353117395        8.3354434665        9.7625121895
  C        -0.7582041637        7.8388517483       11.0904869405
  H        -1.3856413699        7.0404882563       11.4076622417
  H        -1.4800016370        7.9441003436        9.0439389014
  H         0.2262471723        9.7094399278        8.3019348017
  H         1.7236546608       10.6906451511       10.0515230765
  H         1.7175009969        9.6932315818       12.4400203464
  C        -2.2220023589        9.3462360391       13.4726843370
  C        -3.2919573423        9.8939948311       14.1117668382
  H        -4.0850260048       10.3905285831       13.6083872173
  H        -2.2178167300        9.4975160200       12.3898077802
  C         1.8953799665        6.0984914419       17.8701632322
  C         1.1325155452        4.9282920390       18.2769458537
  C         1.2297667284        4.4894540598       19.5878513253
  C         2.1588317554        5.0299189541       20.4755316714
  C         2.8564954354        6.1777317160       20.0844718419
  C         2.7161091797        6.7173117650       18.8007065052
  H         3.3128363424        7.5000673842       18.4963289386
  H         3.5355096906        6.6936925121       20.7748095150
  H         2.1226322776        4.6627173793       21.5070496301
  H         0.5754848702        3.6335854789       19.8253415910
  H         0.5146827280        4.3822807336       17.5831460341
  C         4.1396896217        5.2698046951       16.3400121756
  C         5.1745366904        4.7150927168       15.6582415654
  C         5.1146059710        4.6469092682       14.2488900321
  C         4.0132926944        5.1122201090       13.5901119944
  H         3.9320975579        4.8735261383       12.5431647484
  H         5.9772685445        4.2700844188       13.6811645342
  H         6.0222221202        4.3167317733       16.1710034897
  H         4.2407278519        5.3359785500       17.3973048352
  C         1.6907974695        6.0137353978       12.0700160736
  C         0.6879244154        5.1813705127       11.5564114522
  C         0.7247438830        4.6531740195       10.2456889757
  C         1.7954896620        5.0201847224        9.4276649652
  C         2.7149737581        5.9466936109        9.8244550849
  C         2.7641107661        6.4434275002       11.1357549151
  H         3.5009303792        7.2197063806       11.3652615671
  H         3.3902392162        6.3044591614        9.0373532757
  H         1.8421136672        4.6209844225        8.4233567252
  H        -0.0664928444        4.0415382713        9.8933246793
  H        -0.2607340287        4.9862222981       12.0942530491
