140

  C        14.2337198593       -0.0100506784        1.0699326857
  C        15.2740811024        0.7736557160        1.6986079921
  C        16.3623177438        1.3290011948        0.9244714442
  C        17.4383967273        1.9687291518        1.6164567546
  C        18.4915076685        2.5160003730        0.9432797419
  C        15.3761465030        1.1461192984        3.1228344948
  C        14.6133109955        2.2202231535        3.6089001243
  C        14.6924442873        2.5387494798        5.0171856439
  C        15.5313690335        1.8319130227        5.7929829103
  C        16.3449427139        0.7687605236        5.2438491442
  C        16.1198595513        0.2673751575        4.0027867866
  H        17.4476075518        2.0725927561        2.7299238171
  H        19.2569308234        3.0716399332        1.5030901944
  H        14.0394155417        2.8831564267        2.9599672532
  H        14.0207988091        3.3316744783        5.2638941320
  H        15.7688840352        2.0364629084        6.8252319693
  H        17.0826691596        0.3923268175        5.9562000355
  H        16.6922838157       -0.5462958259        3.6392670623
  C        14.2394364114        0.0012114287       -0.3920573833
  C        13.1559860684       -0.7079816407       -0.9992391575
  C        12.1123400045       -1.2943471898       -0.2404933607
  C        12.0921501955       -1.2785203573        1.2224178079
  C        13.1665661638       -0.6498240097        1.8468516903
  C        16.3871759071        1.2480212664       -0.4866837145
  C        15.3074276539        0.6122962979       -1.1640602258
  C        15.1110673982        1.0674862605       -2.6140468204
  C        14.2998435322        2.1968238025       -2.9084986303
  C        14.3206035474        2.7187832002       -4.1971626523
  C        15.2670675046        2.2300079950       -5.0956019648
  C        16.1326105649        1.1240476854       -4.8499330531
  C        15.9261979886        0.4367260897       -3.6200132702
  H        16.4529179145       -0.4808838175       -3.4796400540
  H        16.7948132575        0.8127202016       -5.6356739658
  H        15.3928160887        2.8700606194       -5.9576147252
  H        13.7060177613        3.6088482207       -4.4638905815
  H        13.7257503450        2.6063614844       -2.0751151444
  C        17.4189502241        1.9545315426       -1.1637794745
  C        18.4532727340        2.5256092322       -0.4764655465
  H        19.1822834456        3.0495164757       -1.0995184176
  H        17.3389852090        1.9785599502       -2.2423356463
  C        13.3135194195       -0.8744833158        3.3318235997
  C        13.9818081505       -1.9512882866        3.9299809784
  C        13.8918153159       -2.1706603719        5.3530064379
  C        12.9484303151       -1.3665622743        6.0746434682
  C        12.2483496316       -0.2878444863        5.4589694222
  C        12.4952964815       -0.0517324703        4.1561693285
  H        11.9991043859        0.6856039990        3.6434931162
  H        11.6240210241        0.3616865608        6.0747330894
  H        12.8371893206       -1.3955890157        7.1962209079
  H        14.4161808377       -2.9939647731        5.8439630311
  H        14.6402121618       -2.6459881782        3.3860560621
  C        11.0169358063       -1.9608149236        1.9200114698
  C         9.9987714320       -2.5161316279        1.2294828079
  C         9.8524013342       -2.3263322941       -0.1625512387
  C        10.9263780607       -1.7912211589       -0.8778449094
  H        10.7840303869       -1.7284647556       -1.9311611048
  H         9.0407192327       -2.7711100074       -0.6851764501
  H         9.3458166810       -3.1895771692        1.7400812627
  H        11.1967305666       -2.1910181968        2.9924914872
  C        13.1911518457       -1.0273676363       -2.4636872812
  C        14.1074406927       -1.9950241463       -2.9425439953
  C        14.0316088530       -2.4511263115       -4.2859760454
  C        13.1032873402       -1.8786478048       -5.1785810424
  C        12.3131371006       -0.7878539024       -4.7658565458
  C        12.3460658340       -0.3943293839       -3.3789414292
  H        11.6564238034        0.3618414180       -3.0711233607
  H        11.6791636945       -0.3803177842       -5.5183137173
  H        13.0823663763       -2.2091290603       -6.2664549962
  H        14.6060925433       -3.2987376186       -4.6957735470
  H        14.7886411854       -2.4768932429       -2.2828898704
  C        10.7003525641        7.3910493562        1.2619839880
  C         9.6414014704        7.9524932689        1.9663780413
  C         8.5089315953        8.4750519792        1.2557866873
  C         7.3381508550        9.1530244656        1.9028636610
  C         6.3462113652        9.7365566867        1.2058124855
  C         9.5664511880        8.3738656253        3.3410671530
  C        10.4603215841        9.3647560286        3.8408420449
  C        10.3285607795        9.8442821927        5.1752910689
  C         9.3098066668        9.3980643880        6.0529532396
  C         8.5879034655        8.2521665623        5.6248566407
  C         8.7079863593        7.8290203872        4.2506762966
  H         7.4830964576        9.4416824255        2.9932745173
  H         5.5807555090       10.3049761386        1.7000695731
  H        11.1636497073        9.8097529665        3.1910092619
  H        11.0689540334       10.5649767276        5.5248138623
  H         9.1033054186        9.7487361488        7.1297377184
  H         7.9913913619        7.6571224265        6.2626165349
  H         7.9782298903        7.0360014737        3.9766496783
  C        10.6883404913        7.3808935518       -0.2411933549
  C        11.8502319230        6.7834793229       -0.8781423135
  C        12.9550155316        6.2145622627       -0.1627971729
  C        12.9438922241        6.3730009379        1.3333648455
  C        11.8000643974        6.8520773343        2.0423761070
  C         8.4433454654        8.4217408158       -0.2012468827
  C         9.6596512790        8.0566343425       -0.8497544320
  C         9.7066652384        8.3674216417       -2.3263098724
  C        10.3559579109        9.4545060786       -2.7936959374
  C        10.3184784294        9.8471944814       -4.1121289812
  C         9.6095371610        9.0531344950       -5.0147392984
  C         9.0460694560        7.8635629512       -4.5993575346
  C         9.0460345617        7.5993154916       -3.2450700707
  H         8.4678947258        6.7248007189       -2.9805797109
  H         8.4112792726        7.2531404555       -5.2341120320
  H         9.5132970654        9.3994466029       -6.0999664669
  H        10.7982637582       10.7677242662       -4.4058618822
  H        10.9896082591       10.0610553118       -2.1717124887
  C         7.2620611353        8.9271587951       -0.8590546085
  C         6.2360616609        9.5727069199       -0.2040653073
  H         5.3537200163       10.0229963115       -0.7161459419
  H         7.0885528542        8.8535625200       -1.9213313131
  C        11.6762457149        6.5197611055        3.4983111636
  C        10.9359580500        5.3615927015        3.7547827545
  C        10.9302712089        4.7410616352        5.0524522958
  C        11.8213261439        5.2621039068        6.0077800885
  C        12.6573466469        6.3500991953        5.7890217843
  C        12.6061861727        6.9146624003        4.5186305004
  H        13.2644965271        7.8220483031        4.4187098668
  H        13.3730450030        6.7132892329        6.5381577971
  H        11.9605222498        4.7048764256        6.9250410155
  H        10.2785055765        3.8700072320        5.3339927625
  H        10.2906604537        4.9056418117        2.9513616279
  C        14.0888199171        5.7401063297        2.0040025515
  C        14.9556000047        4.9034492023        1.3337878561
  C        14.8091912663        4.6523961316       -0.0597018720
  C        13.9715285408        5.4298235823       -0.7883856249
  H        13.8955122215        5.4201117483       -1.8348194436
  H        15.5136326724        3.9672000827       -0.4904620510
  H        15.6810576291        4.3520170605        1.8911939431
  H        14.1717907449        5.8640210108        3.1093831993
  C        11.8770827718        6.5011675244       -2.4064082529
  C        11.2318482194        5.4208231645       -2.9976971157
  C        11.2500801677        5.1460824512       -4.3513839572
  C        11.9432313616        5.9638941715       -5.2468567216
  C        12.7722668055        6.9432549012       -4.5881014211
  C        12.6554769637        7.3090710068       -3.2452934941
  H        13.0869201676        8.1922129711       -2.9094243466
  H        13.3889850553        7.6265970252       -5.2260179335
  H        12.0859058266        5.7133249429       -6.2968559228
  H        10.6713512433        4.2722967318       -4.7420133416
  H        10.5999822204        4.8687334153       -2.3203385655
