140

  C         4.8906983918       -1.0538675047       13.7997206272
  C         5.8987096337       -0.3239983281       14.4404745315
  C         7.0045777602        0.1786004493       13.8014501812
  C         8.1846154626        0.7245371283       14.4397691403
  C         9.1996664768        1.3258490267       13.7379225410
  C         5.6576364780       -0.0537382550       15.9638446513
  C         4.8518497472        1.0521177574       16.2685922993
  C         4.7234706853        1.4852315017       17.6023258861
  C         5.3733891455        0.7774762362       18.6398446097
  C         6.1431229181       -0.3923921682       18.3493386755
  C         6.3330973047       -0.7539502223       16.9885118061
  H         8.2277547812        0.7007824404       15.5017953411
  H        10.0811693700        1.7776801402       14.1418916029
  H         4.4992347078        1.7164677120       15.5181156236
  H         4.0356191390        2.2753870348       17.9583167362
  H         5.2590922644        1.1540968326       19.6553502873
  H         6.5964186775       -0.9000274970       19.1363916870
  H         6.9086333742       -1.5876078012       16.8263846456
  C         4.9166664322       -1.1348007361       12.3328862024
  C         3.9339704035       -1.8456438868       11.6173765167
  C         2.7396439356       -2.2913488221       12.2908322061
  C         2.6675079012       -2.2139806727       13.7559546646
  C         3.7215831659       -1.6439937362       14.4381527055
  C         6.9838337976        0.2222805241       12.3636694136
  C         5.9338058406       -0.3542447486       11.6382005527
  C         5.9659026960        0.0044086537       10.1604223887
  C         5.0943027861        1.0268776852        9.7565680939
  C         4.8873103146        1.3123269301        8.3801773810
  C         5.7205448401        0.6116414764        7.4643739142
  C         6.7289303142       -0.2551305447        7.8774318642
  C         6.7889982908       -0.6643650762        9.2496859821
  H         7.4833189165       -1.4478976284        9.5541634769
  H         7.3149852589       -0.7544174322        7.1239433748
  H         5.6240316288        0.8645102719        6.4073541648
  H         4.1687991591        2.0145650705        8.0488590025
  H         4.5190747069        1.5467314437       10.5106083396
  C         8.0396753259        0.8714782037       11.6713925973
  C         9.1130784158        1.3849952815       12.3265437829
  H         9.8390439042        1.9256779150       11.7131618482
  H         7.8987328990        1.0258494995       10.5765241129
  C         3.6469537841       -2.0304673587       15.8585039407
  C         4.2393170726       -3.2531720570       16.2682946421
  C         4.0687704769       -3.7110317080       17.5755430360
  C         3.3729302710       -2.9233278153       18.5306933204
  C         2.8331974758       -1.7378062224       18.1057948222
  C         2.8538883093       -1.3169698561       16.7833539949
  H         2.3055199391       -0.4189540631       16.4820452544
  H         2.4498034148       -1.0824079988       18.9059503647
  H         3.1932239221       -3.2868453862       19.5658158912
  H         4.1430613479       -4.7825785868       17.8073499644
  H         4.7770640494       -3.8933891806       15.5974597332
  C         1.5580270984       -2.7882163067       14.5023091000
  C         0.5391986741       -3.4267153517       13.7747623416
  C         0.6449699231       -3.6035224361       12.3871261504
  C         1.6954748648       -3.0213771760       11.5958067428
  H         1.8162724709       -3.3005695200       10.5691633724
  H        -0.1585994597       -4.1442615304       11.9129801643
  H        -0.3241082950       -3.9190472312       14.3203080477
  H         1.5195163982       -2.6495613349       15.5918171501
  C         3.9066445789       -2.2157030997       10.1602563211
  C         4.8794444982       -3.1558815424        9.8868279448
  C         4.9277935479       -3.7597199109        8.6185514544
  C         3.8892022272       -3.4905441076        7.7144134024
  C         2.9643517522       -2.4406245827        7.9967778338
  C         2.9872325376       -1.7284696911        9.2199557128
  H         2.2473710365       -0.9425411101        9.3800196076
  H         2.2574004690       -2.1324783212        7.2198268035
  H         3.9117035777       -3.9395357005        6.7278543544
  H         5.7960384286       -4.4512887039        8.3153903873
  H         5.6773540868       -3.4713126269       10.5875063322
  C         0.9782260762        5.9824773465       14.0812064170
  C        -0.0325889966        6.7670089631       14.7544654648
  C        -1.1542571113        7.2720289786       14.0888944351
  C        -2.4013329501        7.7362773228       14.7376734188
  C        -3.3164724566        8.4039817027       14.0512728353
  C         0.0514853710        7.0722397680       16.1954597692
  C         0.7662168150        8.2302742483       16.5608738908
  C         0.8309909887        8.6968962297       17.9067538899
  C         0.1543198536        7.9398723786       18.8686864980
  C        -0.4762464063        6.7212759349       18.5546171019
  C        -0.5877543862        6.3867769472       17.2646533147
  H        -2.5900767274        7.4263608266       15.7384071188
  H        -4.2139217094        8.7640818905       14.5151775167
  H         1.2820590192        8.8297980509       15.8290950530
  H         1.3448508270        9.6432632069       18.0897798160
  H         0.2274951351        8.2038001133       19.9037268082
  H        -0.8651641066        6.0971447881       19.3407954096
  H        -1.0279629398        5.4526868216       17.1027934989
  C         0.9040223545        6.0461600470       12.5541587382
  C         1.9334829527        5.3521667314       11.8335316387
  C         3.1228015750        4.8026816217       12.5221951551
  C         3.1483728737        4.7443265780       13.9657238626
  C         2.0548151909        5.2282153587       14.7871840292
  C        -1.1697978583        7.3168321196       12.6090041051
  C        -0.1093753284        6.7501180733       11.9014916132
  C        -0.0733211417        7.0841898549       10.4172127245
  C         0.7213989797        8.1352894397        9.9287985437
  C         0.6346852363        8.5796067799        8.5686671710
  C        -0.1478882518        7.7803072211        7.6932362014
  C        -0.9617185835        6.7284298934        8.1611936930
  C        -0.8985219670        6.3572041307        9.5358332504
  H        -1.4332681617        5.5211555537        9.9167980208
  H        -1.6146098481        6.2679197412        7.4220358795
  H        -0.1806680606        8.0418816405        6.6528010500
  H         1.2815977662        9.3017312894        8.1408773095
  H         1.3196225011        8.6939050631       10.6954156190
  C        -2.1957530936        8.0410202931       11.9267999176
  C        -3.1878493704        8.6237267042       12.6744044622
  H        -3.9913403854        9.1169364524       12.1843123925
  H        -2.2152850816        8.0598406456       10.8525461374
  C         2.0142011277        4.9357411320       16.3078490049
  C         1.2184403512        3.8124440516       16.6728493340
  C         1.1636396295        3.3596094704       17.9490005384
  C         2.0124615319        3.9657719896       18.9140885605
  C         2.8665780113        5.0414095238       18.5289894981
  C         2.8313886744        5.5783174500       17.2595070400
  H         3.3537184314        6.5410181680       17.0683077304
  H         3.6922740721        5.4577944753       19.2381903973
  H         1.9714121639        3.5784678625       19.9631009258
  H         0.6301781193        2.4361556155       18.1508684416
  H         0.7823373372        3.2082024875       15.8937036326
  C         4.3254500539        4.2046416766       14.5822653183
  C         5.4755795683        3.8946073991       13.8884722997
  C         5.4607869635        3.8793651074       12.4907553944
  C         4.2918884683        4.3125175470       11.8217850748
  H         4.2465144123        4.3326690494       10.6843150080
  H         6.3328620219        3.7015368937       11.8625424405
  H         6.3066105510        3.5926523005       14.4701466870
  H         4.3691930037        4.2928759726       15.6643484244
  C         1.9026999425        5.0331878359       10.3419966116
  C         1.2063049808        3.9077072970        9.8884077932
  C         1.4262871315        3.3364649777        8.6474767475
  C         2.2733222413        3.9892646990        7.7461573877
  C         2.8958971903        5.2172578868        8.1519238591
  C         2.6968467531        5.7032595269        9.3971941328
  H         3.0777400639        6.7303611648        9.6272391605
  H         3.6168245975        5.8201428026        7.5385420554
  H         2.3515147962        3.5987289159        6.7370651268
  H         0.9344860947        2.3972933081        8.4771111209
  H         0.5117946646        3.4095166525       10.5501764046
