140

  C        15.4295259174       -0.1429911957        2.4259675332
  C        16.3349352299        0.5863277512        3.2335026588
  C        17.5143701543        1.1256050203        2.5902070680
  C        18.5637870225        1.7783131618        3.3710870581
  C        19.6627884944        2.2787134061        2.7217581031
  C        16.1475176592        0.9871278524        4.6508254745
  C        15.4417438192        2.1243913673        5.0864124299
  C        15.5605542484        2.4645907825        6.4062333212
  C        16.3676964973        1.7178385980        7.2721911625
  C        17.1529130391        0.6241321190        6.8574088156
  C        16.9937304922        0.1812348268        5.5622686142
  H        18.4765712890        1.8057142414        4.4772846087
  H        20.4335826411        2.7702158807        3.3310352999
  H        15.0705027955        2.7707260285        4.3566885710
  H        15.0483119764        3.3039101348        6.7254715360
  H        16.4692858958        2.0794609664        8.3109001416
  H        17.7669219231        0.0442437192        7.5134317715
  H        17.4547701070       -0.6463220440        5.0676564639
  C        15.5507515908       -0.1550447332        0.9324203399
  C        14.5113313455       -0.9579654983        0.2769269852
  C        13.4104904344       -1.4445101710        0.9796282024
  C        13.2745601012       -1.4182493390        2.4349029292
  C        14.3877424915       -0.8285247932        3.1088872762
  C        17.5917073389        1.1024683439        1.1511491133
  C        16.5803839550        0.5569618408        0.2579741329
  C        16.5048779929        0.9054969330       -1.1863381096
  C        15.6842044090        1.9729262229       -1.6044260948
  C        15.7255862134        2.3633809291       -2.9269341205
  C        16.3688139594        1.5708466653       -3.8664310058
  C        17.0931767820        0.4376036679       -3.4990707345
  C        17.1863533648        0.0860553231       -2.0869820293
  H        17.8085089410       -0.7160063763       -1.7278926046
  H        17.7143985438       -0.1606047310       -4.1733310069
  H        16.1403503049        1.7588399476       -4.9088116760
  H        15.2034344360        3.3171020321       -3.2153679906
  H        15.1085794457        2.4481344400       -0.7867878235
  C        18.7615484058        1.7857342557        0.5075399687
  C        19.7433718140        2.3279166989        1.3146341645
  H        20.7221188788        2.6021171106        0.8538328635
  H        18.8547870081        1.7970155642       -0.5779361279
  C        14.5702416695       -1.2578307885        4.5398292373
  C        15.4541571976       -2.3166242405        4.6671201030
  C        15.6716810900       -3.0278845804        5.8519205023
  C        14.8638022121       -2.7018160015        6.9933986874
  C        13.9449529325       -1.5836755223        6.8643700347
  C        13.7488760675       -0.9332471908        5.6695983046
  H        13.1975745384       -0.0061423241        5.7216874329
  H        13.4115983380       -1.1389477597        7.6884477074
  H        14.9184573456       -3.2036192809        8.0633545030
  H        16.5113592622       -3.7686737078        5.8853821363
  H        15.9671489551       -2.7065288110        3.8352772779
  C        12.1234384437       -1.9588394113        3.1037192919
  C        11.0760668756       -2.5239518251        2.4104931147
  C        11.2180794256       -2.6929155418        1.0065439556
  C        12.2948231878       -2.1745514108        0.3181487787
  H        12.3240279442       -2.2192580902       -0.7548208617
  H        10.5616858728       -3.3732042740        0.4653089421
  H        10.1887809212       -2.8944904450        2.9429061095
  H        12.0142072996       -1.8192277892        4.1549244226
  C        14.5111665313       -1.4018966674       -1.1408606003
  C        14.9813420734       -2.6554597662       -1.6266116138
  C        14.9162460714       -3.0372709332       -2.9843585351
  C        14.1925965726       -2.2387271701       -3.8490719104
  C        13.5918463295       -1.0518861605       -3.3507906979
  C        13.7738484661       -0.6141562370       -2.0695683739
  H        13.4508755014        0.3678803266       -1.7464672996
  H        12.8770546074       -0.5096754327       -4.0215486039
  H        14.2503696955       -2.4904218743       -4.8999557532
  H        15.2630287453       -4.0049624034       -3.3016216132
  H        15.4795609681       -3.3881719995       -0.9423638422
  C        11.6561265773        7.3154190075        2.2557128576
  C        10.7286833831        8.1348071179        2.8775761054
  C         9.6675131985        8.6829400316        2.1663723742
  C         8.5885896727        9.3983722175        2.8515692438
  C         7.5460669865        9.9428696268        2.1260767772
  C        10.7671301824        8.3968780123        4.3218547462
  C        11.4780855455        9.5081269423        4.8200920693
  C        11.4155925349        9.8196777498        6.1888123208
  C        10.5618463341        9.0524138153        6.9577021171
  C         9.7873494529        7.9701895848        6.4701001545
  C         9.8868298356        7.6319563628        5.1045610914
  H         8.6587598879        9.4596842665        3.8985006030
  H         6.7307715088       10.4869076418        2.6036239784
  H        12.3012039696       10.0811337628        4.3342019911
  H        11.9181241248       10.6903769178        6.5592335662
  H        10.5076792072        9.3705313181        8.0263827811
  H         9.1117967438        7.4993209954        7.1105207938
  H         9.1857610420        7.0172651493        4.5603551109
  C        11.6182838799        7.2344179099        0.7775099291
  C        12.6292267456        6.4275897421        0.1404614270
  C        13.7235732261        5.8757821315        0.8704207301
  C        13.6770391893        5.8975730797        2.2929820006
  C        12.5964951737        6.4932214795        2.9229322249
  C         9.6165461374        8.5684074726        0.6995526795
  C        10.6764943151        7.9611730460       -0.0080999654
  C        10.7636598894        8.2641575229       -1.4274847511
  C        11.5969519833        9.3072797368       -1.9242844744
  C        11.6981037005        9.6108664978       -3.2933246182
  C        10.9792871137        8.8392784263       -4.2260613342
  C        10.0728909211        7.8538700000       -3.7444192712
  C         9.8964996439        7.5949768158       -2.3451001709
  H         9.1817408769        6.8708414431       -1.9558152028
  H         9.3698360636        7.4272370114       -4.3950993607
  H        11.1068400870        9.1058393336       -5.2752157001
  H        12.3861178236       10.4017282209       -3.6476965595
  H        12.0795017537       10.0506210721       -1.2205432704
  C         8.5368937528        9.2324910763       -0.0150037747
  C         7.5691527410        9.8905407721        0.7043097171
  H         6.7938153760       10.4392218979        0.2535070476
  H         8.5954910239        9.3575055805       -1.1061788825
  C        12.4672076257        6.0126579648        4.3994823206
  C        11.7477692005        4.8584144463        4.8450958845
  C        11.8799910752        4.2914309082        6.1178709571
  C        12.6195934399        5.0449194965        7.0157029255
  C        13.2566597717        6.2296483074        6.6758241328
  C        13.1574315889        6.7496680990        5.3924120008
  H        13.6174163458        7.6619929021        5.0462394800
  H        13.8779995326        6.7429388024        7.4962632178
  H        12.7866111895        4.7942140495        8.0267186717
  H        11.2381076513        3.4695366479        6.4426869234
  H        11.3202233110        4.2893296423        4.0328306127
  C        14.7039289718        5.1702817406        3.0191831372
  C        15.6589685936        4.4573697937        2.3335205230
  C        15.8625064187        4.6248618520        0.9563375585
  C        14.8377894464        5.2666169376        0.2503450471
  H        14.9677389606        5.2842652603       -0.8271511142
  H        16.8300999887        4.4217303722        0.4441476135
  H        16.3573063818        3.8048880470        2.9254189096
  H        14.7603069194        5.0538307038        4.0782001954
  C        12.6613254583        6.1650596105       -1.3062065035
  C        11.7966629326        5.1901225891       -1.6852914268
  C        11.9777373633        4.5466356200       -2.8976956894
  C        13.0363760096        4.8940409843       -3.6996556258
  C        13.9751067987        5.8803499967       -3.2302129386
  C        13.7099924565        6.5776717430       -2.0663548113
  H        14.3821822338        7.3311516987       -1.7539983448
  H        14.7904108260        6.1834589700       -3.9238401654
  H        13.0888403403        4.5193644975       -4.7265376872
  H        11.2452632721        3.7590126909       -3.1774303122
  H        10.9141651705        4.8840732607       -1.0872033479
