140

  C         3.9986749112        0.1591352493       15.1521724118
  C         5.0158551889        0.8395193074       15.8437337047
  C         6.0071702380        1.5363286972       15.1687663243
  C         7.0668986890        2.1944299402       15.8775956364
  C         8.1240904835        2.7738231239       15.2017513067
  C         5.0246119338        1.0973885253       17.3333701876
  C         4.3253802540        2.2956558840       17.8112800149
  C         4.4794457830        2.7311568156       19.1138131969
  C         5.3642567341        2.0706961290       20.0378780276
  C         6.0597858606        0.9536133385       19.5993083953
  C         5.8800011469        0.4886996245       18.2657501164
  H         7.2032221657        2.2854901863       16.9576548430
  H         8.9096377989        3.2199286529       15.8448776002
  H         3.7170113038        2.8548937057       17.0852491068
  H         3.8996615866        3.6120230752       19.3828899041
  H         5.5186136547        2.5315883969       21.0585780787
  H         6.7867388577        0.4716949579       20.2943122688
  H         6.4207711615       -0.4055441830       17.9509606483
  C         3.9513911262        0.1582143358       13.6680527170
  C         2.9666395680       -0.6332545997       12.9861796326
  C         2.0345164605       -1.3068541769       13.7403604502
  C         1.8889041036       -1.1560963534       15.2026923115
  C         3.0272668937       -0.5996191195       15.9244184933
  C         5.9595478294        1.5667405453       13.7480679582
  C         4.9271992641        0.9247355963       12.9756786996
  C         5.0287393575        1.1844519521       11.4795540393
  C         4.2912144497        2.3509232510       11.1595745224
  C         4.2698832456        2.8084252263        9.8354677070
  C         5.0106434012        2.1018904086        8.8523228726
  C         5.7480763317        0.9514191855        9.2623164391
  C         5.7686370466        0.4765588188       10.5714633950
  H         6.3050030602       -0.4025332261       10.8623518292
  H         6.3648919078        0.3786482192        8.5242923496
  H         4.8422682331        2.3687196773        7.8198269129
  H         3.7382895336        3.7211676434        9.5640016436
  H         3.7486016457        2.8274033513       11.9857997105
  C         7.0568822171        2.2273105417       13.1041751471
  C         8.1093427267        2.8203090199       13.7546558480
  H         8.9200980631        3.2754587285       13.1915204055
  H         7.1372407281        2.0084187259       12.0299559314
  C         3.1202700307       -0.9552269834       17.4081889160
  C         4.0163083375       -2.0047846844       17.8436957422
  C         4.0802800423       -2.3868340717       19.1410710460
  C         3.1480479216       -1.8708819743       20.0760705697
  C         2.2275522367       -0.9152007699       19.6800403047
  C         2.2370156833       -0.3930894379       18.3828740039
  H         1.6387536101        0.4016870988       18.1041221816
  H         1.4790149392       -0.4775325115       20.2917525043
  H         3.2480923448       -2.1227053615       21.1095674674
  H         4.8563420394       -3.1192658358       19.4426576716
  H         4.6840928137       -2.4759056401       17.1330638707
  C         0.6982995162       -1.7293641903       15.9282799354
  C        -0.3089324020       -2.3017190310       15.1403791160
  C        -0.0759687273       -2.5439083439       13.7445767775
  C         0.9919483396       -2.0493707932       13.0767306549
  H         1.0182146177       -2.1477362491       11.9843959144
  H        -0.9192061620       -2.9813409739       13.2501837435
  H        -1.2574129491       -2.5777766586       15.5295330874
  H         0.6803546129       -1.5761674911       17.0563708938
  C         3.0515750303       -1.1072018182       11.5023670572
  C         3.7940233504       -2.2187141371       11.0598348795
  C         3.7188557588       -2.6874038816        9.7271957030
  C         2.8623736688       -2.0010546875        8.8822774129
  C         2.1410172936       -0.9253542148        9.2934613744
  C         2.1775514229       -0.4260835715       10.6119866681
  H         1.5954069656        0.5019510881       10.8586962388
  H         1.5884858069       -0.3210956448        8.5736365621
  H         2.8906217171       -2.2049142825        7.7603617437
  H         4.3475615330       -3.5162703396        9.3829502169
  H         4.3654446088       -2.8212814355       11.7939293088
  C         0.5114365427        7.3621719975       15.1983025676
  C        -0.3764863007        8.2119408290       16.0092864040
  C        -1.5888168180        8.6460833485       15.3849075422
  C        -2.5869164838        9.3670606185       16.1244340549
  C        -3.8340993097        9.6962128211       15.5187288210
  C        -0.2461828709        8.6821295873       17.4340095332
  C         0.6512547827        9.7276297900       17.8640193385
  C         0.6287471266       10.1562731683       19.1889436650
  C        -0.3006317057        9.7096771405       20.0898158065
  C        -1.1861297499        8.7041319799       19.6893012097
  C        -1.0696261051        8.0979608979       18.4191452940
  H        -2.5492086351        9.6838799934       17.1432826888
  H        -4.5156164399       10.2868920054       16.1442910097
  H         1.4835081886       10.1536692795       17.2609374425
  H         1.2952923581       10.9175232052       19.5407865997
  H        -0.3444296107       10.0822658925       21.1150907854
  H        -1.9104797846        8.2750241925       20.3696558053
  H        -1.6868955504        7.2295561104       18.2584243150
  C         0.3903213085        7.3557390450       13.7533908161
  C         1.3183200104        6.6395458078       13.0161795560
  C         2.4623233793        6.0564237826       13.6680192898
  C         2.5317362064        5.9590136228       15.1183732085
  C         1.4416653683        6.4868475008       15.9011463691
  C        -1.8273351244        8.4311383309       13.9372479627
  C        -0.7785694011        7.9348414114       13.1578386754
  C        -0.8977478861        8.3387091743       11.7259131711
  C        -0.1923766611        9.3987000162       11.1748623527
  C        -0.4387222535        9.8237765642        9.8362977607
  C        -1.4080336985        9.1681899711        9.0578157570
  C        -1.9761336656        8.0014925958        9.5765933620
  C        -1.7071235477        7.5335181629       10.8264372584
  H        -2.1286380929        6.5502835237       11.1093910162
  H        -2.4073283527        7.2547693221        8.9579594325
  H        -1.7539919985        9.4846153469        8.1103440614
  H         0.0788749976       10.7046030984        9.4824443742
  H         0.6081823686        9.7695322446       11.8112327075
  C        -3.0442536908        8.9658474128       13.3555864420
  C        -4.0279727260        9.5953826314       14.0940616933
  H        -5.0112316533        9.8015438582       13.6789507903
  H        -3.0782775918        8.9482663580       12.2535334822
  C         1.2858470797        6.1141677449       17.3195707922
  C         0.3682615633        5.1228039685       17.6926036955
  C         0.2558213122        4.7924816030       19.0659878628
  C         0.9861287933        5.4355643985       20.0699731401
  C         1.8775895422        6.4473364649       19.6457014595
  C         2.0709536888        6.7193447207       18.2842554421
  H         2.7730683216        7.5456119631       18.0002542414
  H         2.5016923431        6.9931907841       20.3132782625
  H         0.9827650134        5.1128163307       21.1141054829
  H        -0.4903171903        4.0322051962       19.2507403695
  H        -0.2423187761        4.6576575759       16.9596501103
  C         3.7225075947        5.3599120119       15.7007667422
  C         4.7964756506        4.9008118305       14.9406179942
  C         4.6518900347        4.9348468262       13.5610456532
  C         3.5586575674        5.5385001736       12.9295396416
  H         3.5997593460        5.7115376022       11.8455111416
  H         5.4569638055        4.5118411138       12.9153684223
  H         5.6195572054        4.5096867717       15.4792207591
  H         3.7979950110        5.4062445117       16.7625348614
  C         1.2276270673        6.3866095063       11.5764931944
  C         0.7457854846        5.1051040986       11.1947515979
  C         0.9412271610        4.5609008762        9.8975095285
  C         1.5999086098        5.3838062011        8.9931454381
  C         2.1461373728        6.6155049150        9.3154300755
  C         1.9978739012        7.1290274098       10.6100026022
  H         2.4031613054        8.0632289522       10.8680958726
  H         2.7853942814        7.1056814120        8.5931367547
  H         1.7790292136        4.9696331737        8.0389407553
  H         0.6922977255        3.5664127610        9.5592778367
  H         0.2560683471        4.5860169023       12.0306486654
