140

  C        15.1556984527       -0.2704232856        0.6841304722
  C        16.2662035273        0.4103269598        1.3912502093
  C        17.3533995979        0.9009946686        0.6556974478
  C        18.4649257203        1.5687298199        1.2916714060
  C        19.4050669736        2.2164413722        0.5885354160
  C        16.3287649246        0.7094466862        2.8599093014
  C        15.8377726377        1.9547407591        3.3613609554
  C        15.9495893766        2.1279454781        4.7798357281
  C        16.4297692224        1.0239929361        5.6601240904
  C        16.9900890924       -0.0844808511        5.0738994873
  C        16.8729159584       -0.2452367732        3.6992401381
  H        18.5637430643        1.5979367923        2.4045622692
  H        20.2049812646        2.7842526627        1.0507622502
  H        15.3656929316        2.7037276535        2.7887727993
  H        15.3629434660        2.9780239814        5.1156122410
  H        16.4150311105        1.1570090508        6.7743630180
  H        17.3062844916       -0.7979784364        5.7810279896
  H        17.3218473090       -1.1008005924        3.1841081762
  C        15.1298572058       -0.2648537407       -0.8207241657
  C        14.1435992172       -1.1126760855       -1.5582597356
  C        13.0938934691       -1.7144566795       -0.8988983722
  C        13.0884734939       -1.6977442378        0.5607881881
  C        14.0919008348       -1.0061631485        1.2576047069
  C        17.3256910924        0.9108550775       -0.7746638938
  C        16.2280759755        0.3287125039       -1.5032711042
  C        16.2108587890        0.6219118722       -3.0095878603
  C        15.2819256146        1.6259116339       -3.4741063239
  C        15.3264913313        2.1494521214       -4.8059497189
  C        16.2529598115        1.4576063192       -5.6668254693
  C        17.0821643988        0.4567313217       -5.2345663366
  C        17.0608450379        0.0087981011       -3.9072327162
  H        17.6024411071       -0.9045681384       -3.6154763432
  H        17.7871068359        0.0882236925       -5.9527949886
  H        16.3220898106        1.6870201267       -6.7549220880
  H        14.7243517370        2.9743239195       -5.2023290328
  H        14.7272514576        2.1623517691       -2.6933737884
  C        18.4421383638        1.5378250079       -1.4944151917
  C        19.4373373914        2.1077441615       -0.8678281795
  H        20.2767069761        2.5105735091       -1.4480354484
  H        18.4827758168        1.4118419822       -2.5825685665
  C        14.1911814200       -1.3381556688        2.6914558864
  C        14.8029935960       -2.5716411823        3.0258829392
  C        14.7495636893       -3.0269423845        4.3859631930
  C        14.0898828403       -2.2696726752        5.3476567051
  C        13.5322714717       -1.0291315522        5.0351251455
  C        13.5863496975       -0.5921813345        3.7218625442
  H        13.0883514128        0.3534962373        3.5004229372
  H        13.0429759859       -0.4766863692        5.8026569425
  H        13.9358521654       -2.6792560433        6.3357260634
  H        15.3008612904       -3.9654039833        4.6374568016
  H        15.3274254754       -3.1918580699        2.3700107135
  C        12.0656429867       -2.3732645965        1.2799951264
  C        11.0044900964       -2.9631141599        0.6163616024
  C        10.9907795854       -3.0932993176       -0.8139144200
  C        12.0553537570       -2.5432341022       -1.4996698250
  H        11.8586517995       -2.6669475901       -2.5366398162
  H        10.2484638930       -3.5423651581       -1.4111570002
  H        10.2139009966       -3.2376295013        1.2684426855
  H        12.0311243841       -2.3009654300        2.3584562457
  C        14.3039305783       -1.4331545061       -3.0321384777
  C        15.1110103415       -2.4553030867       -3.5778402827
  C        14.9920106259       -2.8779030696       -4.9353474590
  C        13.9110894310       -2.4593312930       -5.6943659562
  C        13.1698532295       -1.3820725753       -5.1921074047
  C        13.3189648745       -0.9216539462       -3.8677173899
  H        12.6925049449       -0.0619285097       -3.5614021409
  H        12.4997440066       -0.8200144399       -5.8263950323
  H        13.7578896521       -2.7869222514       -6.7180666500
  H        15.6311705087       -3.6968036442       -5.2220834846
  H        15.8893405293       -2.9252578381       -2.9992195853
  C        11.2213821620        6.8866343632        0.6962960469
  C        10.1579882085        7.6154711606        1.3233243011
  C         9.1591479450        8.2255618661        0.4942166414
  C         7.9682231901        8.6334825915        1.1525501320
  C         6.9680375483        9.2353157073        0.3853106201
  C        10.2306521907        8.0217618298        2.8001840729
  C        11.0983919271        9.0992650665        3.0401135724
  C        11.1714599617        9.6566691450        4.3257697862
  C        10.3493687631        9.1781737971        5.3717337189
  C         9.6431711619        8.0470176330        5.1023739652
  C         9.4926315085        7.4459076487        3.8354743081
  H         7.8370609380        8.5595820226        2.2472390042
  H         6.0139555594        9.4575801463        0.8218746015
  H        11.7263657700        9.5681374090        2.2770127409
  H        11.7302323163       10.5893916806        4.5451628981
  H        10.3789946907        9.5698240095        6.3609652796
  H         9.0149422960        7.6961740449        5.9210597100
  H         8.8721465993        6.6067632991        3.6864867466
  C        11.2640843058        6.8565234529       -0.7934234177
  C        12.3908767469        6.2744522868       -1.4072313727
  C        13.3904608553        5.5745712050       -0.7235792148
  C        13.2987045995        5.6104525758        0.6925489875
  C        12.1799679040        6.1366264054        1.4182013722
  C         9.2321959921        8.2554945592       -0.8936860510
  C        10.3654361492        7.6923366945       -1.5498047337
  C        10.5413338094        8.0505833993       -3.0298922739
  C        11.3196213415        9.1250149519       -3.5635822360
  C        11.2279917601        9.6258222287       -4.9030746094
  C        10.2554734499        8.9700214645       -5.6960698401
  C         9.4233062986        8.0037018028       -5.2058483763
  C         9.5467462675        7.5494406276       -3.8864713219
  H         8.8553056814        6.7746009725       -3.5557972874
  H         8.6783901065        7.5681476411       -5.9150902913
  H        10.1403361402        9.4242071055       -6.7054653420
  H        11.8157775505       10.4049054668       -5.2489573423
  H        12.0690697735        9.6644760448       -2.9273012028
  C         8.2982408457        9.0534446957       -1.6276292457
  C         7.1925759603        9.5858580005       -1.0075192955
  H         6.2824171868       10.0445762915       -1.5325980529
  H         8.3195278266        9.1245414470       -2.6947674238
  C        12.0874703153        5.7317829699        2.9061528135
  C        11.3802776700        4.4863990487        3.0101272123
  C        11.2000374457        3.9243393335        4.2406689183
  C        11.7672725828        4.4702140274        5.3963687562
  C        12.5322819313        5.6646119827        5.3335709484
  C        12.7679287923        6.2016734144        4.0405860887
  H        13.3692081971        7.1049061301        3.9702115975
  H        13.0324875929        6.0524236481        6.2139418615
  H        11.7370233784        3.8915881785        6.3252524049
  H        10.5864958316        3.0032451417        4.2992388253
  H        11.0262854904        3.9715728598        2.1021373477
  C        14.4002403519        4.9962421822        1.4417164291
  C        15.5269762185        4.4079425895        0.7869114101
  C        15.5743341224        4.4737052048       -0.5949705489
  C        14.5687557108        5.0594725279       -1.3533358113
  H        14.7266687225        5.1098337489       -2.4010190504
  H        16.5246788646        4.1723290263       -0.9937021916
  H        16.3620821013        4.0358536062        1.4051524295
  H        14.4032374364        5.0681234814        2.4809120156
  C        12.4647872715        6.0141890062       -2.9792014260
  C        11.8188207358        4.8014934486       -3.3375796356
  C        11.9218827728        4.4058596280       -4.6584385244
  C        12.8930012941        4.9889585036       -5.5269109461
  C        13.5807059332        6.0477909216       -5.0503398947
  C        13.3873550308        6.6356929250       -3.7753215995
  H        14.0408260567        7.4226785263       -3.4873906637
  H        14.4040864029        6.5080336775       -5.6374617328
  H        12.9801851879        4.6492003988       -6.5410900028
  H        11.3990287017        3.5868969813       -5.0362136511
  H        11.1449393988        4.2496983542       -2.6192551203
