140

  C         3.7483073813       -0.0365873104       14.5315444741
  C         4.8132806588        0.5988984978       15.2611517779
  C         5.7842218884        1.2823888359       14.5156567641
  C         6.9194985998        1.7983379101       15.3112098338
  C         7.9193300903        2.4488920350       14.6023551024
  C         4.8833814339        0.8455373331       16.7053417070
  C         4.3535035026        2.0625636981       17.1625141146
  C         4.6118012758        2.5291950073       18.4710606854
  C         5.2421632321        1.7451547025       19.4245985626
  C         5.6278305052        0.4460022276       18.9729570922
  C         5.5102708870        0.0336660919       17.6384239402
  H         6.9592017524        1.7509573810       16.4021946919
  H         8.7062585063        2.9673888079       15.1392321261
  H         3.8942037314        2.7883932159       16.4736705865
  H         4.2550409352        3.5062699896       18.6935743248
  H         5.3137124164        2.1671589633       20.4250476219
  H         6.0607875773       -0.1210504537       19.7562293212
  H         5.9627398959       -0.9009089465       17.3097904709
  C         3.7463811597        0.0824931470       13.0581779496
  C         2.7107660701       -0.5903056664       12.2579628589
  C         1.7107200319       -1.2290510882       12.9207402467
  C         1.6224966545       -1.2109887326       14.3704996039
  C         2.6298080995       -0.6840410639       15.1692485881
  C         5.7231782663        1.4360440817       13.0836178249
  C         4.6771051225        0.9875675818       12.3554579572
  C         4.6278257952        1.3767028142       10.8806503564
  C         3.7909297278        2.3459430666       10.4404266166
  C         3.6922444622        2.7873660905        9.1132807309
  C         4.5587499988        2.2178570903        8.1420227036
  C         5.3365594391        1.1170541492        8.5376129127
  C         5.4449165501        0.7047736757        9.8735133423
  H         6.1153195082       -0.0849731259       10.1689111141
  H         5.9821012955        0.6081290480        7.8417697276
  H         4.5445657826        2.5553142809        7.1048486201
  H         2.9415115925        3.5413109407        8.8089207427
  H         3.1238810031        2.8837576313       11.1620905874
  C         6.7546426345        2.2572201009       12.4869059261
  C         7.8573064702        2.6581183167       13.2245702714
  H         8.5679525565        3.2012013556       12.6731762079
  H         6.5132422872        2.5587010537       11.4582831122
  C         2.6950271643       -0.9247465073       16.6059312092
  C         3.4057065495       -2.0116627527       17.1015231330
  C         3.3997304896       -2.3955522271       18.4443194722
  C         2.6784068721       -1.5602189235       19.3060231632
  C         1.9576938950       -0.4618443409       18.8229029974
  C         1.9595766940       -0.1136622444       17.4859052608
  H         1.4232767504        0.7365478078       17.1346418913
  H         1.5864596620        0.1832215429       19.5753823998
  H         2.6697591511       -1.8266789552       20.3272380787
  H         4.0086812004       -3.2547349497       18.7833154091
  H         4.0603483641       -2.4309204946       16.3037520644
  C         0.3667578660       -1.6268468961       15.0562126220
  C        -0.7002688429       -2.0397730474       14.3313640910
  C        -0.5853623196       -2.1976114125       12.9268321220
  C         0.5688874659       -1.8573092562       12.2771206223
  H         0.6576342806       -2.0911664442       11.2612564186
  H        -1.3996562900       -2.7720010807       12.3507237723
  H        -1.6638334170       -2.3073106567       14.8276841709
  H         0.2789753610       -1.5121052721       16.1994395895
  C         2.7924564915       -0.9043038012       10.8028160652
  C         3.7552517837       -1.8253583677       10.2675182313
  C         3.7366966448       -2.1732476739        8.9223752059
  C         2.8626985792       -1.5325280238        7.9839364290
  C         1.9827226258       -0.6368302899        8.4838838306
  C         1.9935722716       -0.2883099399        9.8612052657
  H         1.2314749796        0.3436065214       10.1700420934
  H         1.4001876887        0.0179441582        7.8242317877
  H         3.0184039534       -1.8623819572        6.9353284329
  H         4.3886377872       -2.9298709602        8.5664810108
  H         4.3699429422       -2.4149208548       10.9660815892
  C         0.1116264932        7.5055978397       14.7974425476
  C        -0.9180179243        8.2388837775       15.4345398947
  C        -2.0479372596        8.7046499032       14.7028910807
  C        -3.1505746798        9.3268131418       15.3885280013
  C        -4.2438741375        9.8811917345       14.6822154518
  C        -0.8318715631        8.6731435204       16.8730840931
  C        -0.3449841123        9.9275811779       17.2560942459
  C        -0.3754308297       10.3454644185       18.6014498891
  C        -1.0543894979        9.5912017150       19.5332128397
  C        -1.6428420743        8.3897416385       19.1812464015
  C        -1.5726051305        7.9417188345       17.8669838302
  H        -3.2126532341        9.1969449422       16.4607026017
  H        -5.0160899433       10.3801790178       15.2471048414
  H         0.1633587838       10.5785852268       16.5693309034
  H         0.1066970287       11.2614307602       18.9275453487
  H        -1.0338425546       10.0467183676       20.5150778257
  H        -2.2579218142        7.7986024398       19.8566738911
  H        -2.1776635712        7.0787054033       17.6500809441
  C        -0.0184662197        7.3611241817       13.3479979012
  C         0.9742094675        6.5143535460       12.6062089754
  C         2.0837036282        6.0144077140       13.3373179764
  C         2.1149504866        6.1298576585       14.7779705927
  C         1.0800582550        6.7768010855       15.4959302723
  C        -2.0452427158        8.7403896064       13.2574514537
  C        -1.0436955551        8.0642953224       12.6074418367
  C        -1.0382250219        8.2626012176       11.1101803113
  C        -0.4163757374        9.4145059305       10.5728785647
  C        -0.4393734779        9.6454467132        9.1297003107
  C        -1.2714814783        8.8998592016        8.3266903901
  C        -1.9819630967        7.8045282839        8.9045220490
  C        -1.8720357196        7.5251132088       10.2267904193
  H        -2.3709419633        6.6714444471       10.6151896773
  H        -2.5700593322        7.2663181962        8.2001512975
  H        -1.3903847210        9.3549308086        7.3103469790
  H         0.0743794635       10.4931726253        8.7315308468
  H         0.1696974843       10.0831120427       11.2209980250
  C        -3.1210776509        9.4479203994       12.5613629959
  C        -4.2492947160        9.8749886419       13.2586032758
  H        -5.1093711322       10.3382372055       12.7382040236
  H        -3.0762444012        9.4652300755       11.4622139989
  C         0.9589380763        6.5534544064       16.9480240139
  C         0.2189855988        5.5134216353       17.4693083265
  C         0.1266029223        5.1856378375       18.8203083553
  C         0.8779675031        6.0180000907       19.6966506806
  C         1.7729303604        7.0190586796       19.2107007257
  C         1.7549411709        7.2809353601       17.8373857291
  H         2.5193674586        7.9660909015       17.4702142329
  H         2.3506090395        7.5161720074       19.9381178700
  H         0.8572049684        5.7948449238       20.7543165367
  H        -0.5072293200        4.3446984427       19.1015239368
  H        -0.3065630136        4.8849505662       16.7541636704
  C         3.2111170723        5.4846337029       15.3953936873
  C         4.1709747929        4.8249566249       14.7015831391
  C         4.2342383825        4.7943085066       13.2836081571
  C         3.1132540215        5.3229131765       12.6572932158
  H         3.1386684044        5.2563533982       11.5429262250
  H         5.0343103814        4.4033434352       12.6530463518
  H         5.0164126468        4.4767533834       15.2610162003
  H         3.1086432750        5.5066886351       16.4545563896
  C         1.0104746820        6.1393732732       11.1487601859
  C         0.3265135943        5.1066294618       10.6320801028
  C         0.4611550819        4.6266317190        9.2728387057
  C         1.3381232887        5.2593825656        8.4568870903
  C         2.1093782438        6.3892202920        8.9686416158
  C         1.9175206271        6.8265884423       10.2890906097
  H         2.4481204502        7.6494546362       10.7136623952
  H         2.9076296060        6.9288703296        8.4328699344
  H         1.5321470517        5.0526987552        7.4147413330
  H        -0.0898800136        3.7303438531        9.0428166700
  H        -0.2968249418        4.4448736016       11.2336919761
