140

  C        16.7163605328       -0.5338817931        2.7481177941
  C        17.6953754549        0.2103652607        3.3874182919
  C        18.8212159762        0.7731911226        2.7305808648
  C        19.9052385212        1.4764392363        3.3640636692
  C        20.8411965613        2.1517722063        2.5937342057
  C        17.6932093309        0.6478418644        4.8783225007
  C        17.0073947605        1.7697566777        5.3868778606
  C        17.1465713233        2.1307934755        6.7433327070
  C        18.0195885502        1.5000621690        7.5966188067
  C        18.7272790367        0.4038894315        7.1720419363
  C        18.5576849161        0.0052225233        5.7560356553
  H        19.9978704345        1.5931322686        4.4495424530
  H        21.5786439501        2.8123487375        3.0498282738
  H        16.3116221181        2.3178305342        4.7447960872
  H        16.5488364143        3.0615481728        7.0483786783
  H        18.1610937709        1.7096214139        8.6580811350
  H        19.3648838150       -0.2099242288        7.7974147840
  H        19.0037537548       -0.9053138757        5.3546743885
  C        16.8053752599       -0.6452576410        1.2396313409
  C        15.7678937428       -1.4176995088        0.6181080576
  C        14.5918337612       -1.7199032097        1.3290026304
  C        14.5746585076       -1.6335343160        2.7604276919
  C        15.6172018109       -1.0841523749        3.4603420271
  C        18.7592865419        0.8139535287        1.2408008604
  C        17.8069012234        0.0730045884        0.5228654442
  C        17.6136245279        0.3854053555       -0.9002884579
  C        16.6903926943        1.4067519346       -1.1795673658
  C        16.4285595936        1.7953287101       -2.4616267223
  C        17.2366668452        1.3124048050       -3.5249797391
  C        18.0589589513        0.1929310698       -3.2673116649
  C        18.2546779439       -0.2812777559       -2.0066113345
  H        18.9795529049       -1.0678524447       -1.8355435457
  H        18.7165492670       -0.1529671220       -4.1438471875
  H        17.2080050152        1.7504280594       -4.5566435431
  H        15.7433623732        2.6036242566       -2.6239642823
  H        16.1649638089        1.9131061531       -0.3782158623
  C        19.7528504707        1.5340807228        0.5155754852
  C        20.7646073679        2.1796719472        1.2084373541
  H        21.5207686232        2.6417714081        0.6276429830
  H        19.6812682843        1.5545113197       -0.5417658458
  C        15.7044973810       -1.5322948362        4.9159233874
  C        16.5473772495       -2.5929582625        5.2462061004
  C        16.5859383936       -3.0646770564        6.5591866272
  C        15.6867838240       -2.5633852575        7.4849618023
  C        14.8842772775       -1.4267713558        7.2013798362
  C        14.9822727259       -0.9011412857        5.9120476136
  H        14.3623476667       -0.0958902625        5.5976425140
  H        14.1111399713       -0.9571881346        7.8998616334
  H        15.6074903439       -3.0816115625        8.3429149174
  H        17.1262467664       -4.0003654595        6.8288571831
  H        17.1423978886       -3.1625683393        4.4649605809
  C        13.4752407536       -2.2901994645        3.4793712243
  C        12.4080593770       -2.8369206145        2.8511657708
  C        12.4703415425       -2.9539879778        1.4414060897
  C        13.5094330307       -2.4289766027        0.7204383413
  H        13.6051770000       -2.6157110137       -0.3231223339
  H        11.5368934673       -3.3302002655        1.0035905014
  H        11.6019804099       -3.3658735776        3.3362854921
  H        13.5181189670       -2.2260764404        4.5503743901
  C        15.8684380749       -1.8451624740       -0.8492152153
  C        16.7218909948       -2.9167935748       -1.1056763498
  C        16.7886676919       -3.4540015389       -2.4304917277
  C        16.0390984448       -2.9554427933       -3.4531841701
  C        15.1483778938       -1.8668130603       -3.1657784621
  C        14.9772754826       -1.3447529395       -1.8512199675
  H        14.3511258641       -0.4421482988       -1.5833491067
  H        14.4891560761       -1.4674211553       -3.9622809849
  H        16.1552177506       -3.3148640941       -4.4785050857
  H        17.4298056842       -4.2984035602       -2.5438641098
  H        17.3008684366       -3.4028758971       -0.3526917676
  C        12.7700325564        6.4805828069        2.6880376188
  C        11.7902965731        7.1749474431        3.3856225688
  C        10.7023672639        7.7746883700        2.7643111627
  C         9.7452845614        8.5048943539        3.5014423559
  C         8.7764866768        9.2282199495        2.8705012225
  C        12.0969156724        7.6618111756        4.7942803509
  C        13.0975953346        8.6511316511        4.9881869208
  C        13.1718386761        9.3832074953        6.1729465861
  C        12.3596249914        9.0817341326        7.2599204372
  C        11.5349285253        7.9363137149        7.1600057188
  C        11.4024864149        7.2629851276        5.9320260129
  H         9.7531156548        8.5077264733        4.5687160831
  H         8.1487659303        9.9154528556        3.4794163039
  H        13.6674113929        8.9364701710        4.1417816706
  H        13.9686667020       10.0366803663        6.3338606024
  H        12.5713704708        9.6094793401        8.2253535889
  H        10.9313809926        7.5679288804        7.9614381772
  H        10.7070555438        6.4065461646        5.8693339344
  C        12.7599094366        6.5602027387        1.1991795794
  C        13.7796955851        5.8770679172        0.5099219709
  C        14.9428448730        5.3214407394        1.1257741136
  C        15.0337734911        5.3298600355        2.5851837040
  C        13.9629124908        5.7984320132        3.3092257079
  C        10.7263565565        7.9745609655        1.3296301925
  C        11.7358124623        7.3421746615        0.5955256875
  C        11.7830763022        7.7350793086       -0.8831050489
  C        12.4230692340        8.9625641957       -1.1560688915
  C        12.4955153656        9.6197230325       -2.4094642028
  C        12.0060572708        8.9207837820       -3.4853110381
  C        11.3513476441        7.6086222465       -3.2530475600
  C        11.2399632743        7.0266245860       -1.9809247609
  H        10.7463173062        6.1333224147       -1.7541454912
  H        11.0308682120        6.9597164034       -4.1247778467
  H        12.0889143388        9.3441074956       -4.5061689259
  H        13.1466031483       10.4809660151       -2.4466790438
  H        12.9824129496        9.4559688866       -0.3594096617
  C         9.6915693543        8.7211928867        0.6981267635
  C         8.6656236885        9.2538619992        1.4683348630
  H         7.8032605916        9.6917329782        0.9901227388
  H         9.6891727611        8.6989421865       -0.4151388006
  C        14.0254300907        5.4886322665        4.7212193385
  C        13.1482334663        4.3824580987        5.1352620818
  C        13.0293857203        3.9860154428        6.4697941039
  C        13.8529121827        4.6632653836        7.4274493725
  C        14.7344473125        5.6938294958        7.0083577974
  C        14.7551840695        6.1895581454        5.6716281297
  H        15.3658800456        7.0237997288        5.2665436956
  H        15.2674184716        6.2395220296        7.7934540652
  H        13.7414835175        4.4517247917        8.4898436681
  H        12.4811651178        3.1112841870        6.8379421396
  H        12.5798143824        3.8845810754        4.3379216437
  C        16.1053618172        4.5825017970        3.2621273460
  C        17.0972549558        4.0882482137        2.4352224942
  C        17.0179295811        4.1080582197        1.0247549617
  C        15.9956740143        4.6838250589        0.3492623061
  H        15.8373113087        4.5938187058       -0.7253432469
  H        17.8657961451        3.6792843313        0.4986780303
  H        17.9191544622        3.5869226003        2.9354083983
  H        16.1387575759        4.4913093402        4.3580441065
  C        13.6469733737        5.6152740629       -0.9760866848
  C        12.8130025492        4.5539425972       -1.2941699943
  C        12.6025560706        4.1504532460       -2.6278596810
  C        13.4661365335        4.6811430103       -3.6125315511
  C        14.4210571882        5.6896164197       -3.2419988339
  C        14.4264042424        6.1863980059       -1.9831687126
  H        15.0142903393        7.1349520775       -1.7572613659
  H        15.0928971576        6.0113185002       -4.0753638619
  H        13.4445091629        4.1906395821       -4.6129630889
  H        11.8244964349        3.4240190050       -2.7997736303
  H        12.2672736528        3.9954120956       -0.5944718638
