140

  C         4.3575537175       -0.2141843074       15.6444066597
  C         5.4289886874        0.4609655134       16.3914637187
  C         6.6112096927        1.0100427003       15.7390328091
  C         7.7164087786        1.6752242362       16.4143103409
  C         8.6892500023        2.3471781522       15.7109288692
  C         5.3740690068        0.8333438452       17.8464253756
  C         4.5980739296        1.9880900017       18.2074169688
  C         4.7246592580        2.4740088497       19.5085290225
  C         5.3964508481        1.7375136244       20.4544266326
  C         6.1544031724        0.5803755912       20.1371031327
  C         6.1003698679        0.1464929490       18.8467686447
  H         7.7256513267        1.6081246962       17.4842982322
  H         9.5553847323        2.7160918396       16.2437711348
  H         4.1242675797        2.5681701089       17.4595383800
  H         4.2181100225        3.3684655612       19.8766486846
  H         5.3923936991        2.1358260645       21.4837264081
  H         6.8002573844        0.0836059990       20.8684919511
  H         6.6361063173       -0.7725078763       18.5000178009
  C         4.4246399403       -0.2650489079       14.1956897050
  C         3.3740897517       -0.8722618847       13.4891341074
  C         2.2088973982       -1.3440914934       14.1794801135
  C         2.1534863246       -1.2253330350       15.6307407910
  C         3.2834809219       -0.7646762122       16.3576052252
  C         6.4954707387        1.0850523468       14.2852462385
  C         5.5331870380        0.3817786180       13.5637966955
  C         5.3967512222        0.7996002538       12.0792663323
  C         4.5318336847        1.8313333786       11.6753699595
  C         4.5020066980        2.2135722697       10.3542550104
  C         5.3766402356        1.5517735725        9.4628390252
  C         6.3074086620        0.6352583895        9.9116467423
  C         6.2674563393        0.1801080420       11.1920514470
  H         6.8731142916       -0.6540105837       11.5889751856
  H         6.8838709513        0.1428580056        9.1808785211
  H         5.3978066455        1.6458607473        8.3926307585
  H         3.7862278509        2.9275529647       10.0181885045
  H         3.8739757170        2.3014147786       12.3774319809
  C         7.5911929670        1.7586662257       13.5788836586
  C         8.6538650823        2.3201178155       14.2910972662
  H         9.5867864004        2.5725020668       13.8008513011
  H         7.6779550272        1.5855839043       12.5049349675
  C         3.4455152946       -1.1470542084       17.7873624308
  C         4.3107326717       -2.2705356786       17.9386234097
  C         4.5151791114       -2.7315528937       19.2083124441
  C         3.9456424472       -2.1303977942       20.3482071281
  C         3.0025807723       -1.0623475343       20.0916493394
  C         2.6802538023       -0.6515034570       18.8024834878
  H         1.9585054239        0.1499905390       18.6820192989
  H         2.7209274337       -0.4156267996       20.9511300908
  H         4.1815206935       -2.4962277107       21.3280268840
  H         5.1711934777       -3.6210823303       19.2615278798
  H         4.8699303859       -2.6110633538       17.1204655655
  C         0.9964580885       -1.8034689607       16.2683160188
  C        -0.0250385750       -2.5020990533       15.6270142206
  C         0.1235781374       -2.7561505463       14.2248731412
  C         1.1701296019       -2.1903638759       13.5691694094
  H         1.2962569044       -2.3594580594       12.4486666505
  H        -0.5318220321       -3.4346719670       13.6786038824
  H        -0.8324177618       -2.9256141383       16.2245091541
  H         0.8919903451       -1.6370623701       17.3751413030
  C         3.3842385597       -1.2039614432       12.0216203115
  C         4.1833687237       -2.2595034625       11.6024612549
  C         4.1008782794       -2.8115173459       10.3018154370
  C         3.1745021466       -2.2576229111        9.4167276536
  C         2.3202880466       -1.2932351242        9.8536972391
  C         2.3991083576       -0.7521026196       11.0994201614
  H         1.7854537647        0.0782439980       11.4299406490
  H         1.5634857776       -0.8857605689        9.2213339657
  H         3.2142263556       -2.6310855167        8.4330516812
  H         4.7920431479       -3.5701375117        9.8426946025
  H         4.9258849955       -2.6230212971       12.2456284436
  C         0.8665500851        6.9862011181       15.6345037959
  C        -0.1969287925        7.7171566051       16.2210146800
  C        -1.3330463887        8.1582256097       15.4225717347
  C        -2.4418565222        8.7808955297       16.0500543809
  C        -3.3824915285        9.4970990459       15.2838588583
  C        -0.2853920528        8.2005966548       17.5963851758
  C         0.4195170954        9.3313792207       18.0002642865
  C         0.3404403738        9.7681649921       19.3234562856
  C        -0.4766904054        9.1512977288       20.2825103026
  C        -1.1867800219        8.0414240552       19.8339317333
  C        -1.0917141961        7.5457884686       18.5370671453
  H        -2.5690410470        8.7399161890       17.1276751434
  H        -4.1103642790       10.1916484009       15.7214348287
  H         1.0477137779        9.7851140602       17.2063096720
  H         0.9423382953       10.6215270441       19.6528528415
  H        -0.6160848758        9.5012028203       21.3143770221
  H        -1.6339953910        7.3055463677       20.5018691120
  H        -1.6421104460        6.6299646151       18.2724300969
  C         0.9757616026        7.0120856870       14.1358515108
  C         2.0993483773        6.3528553249       13.5499522460
  C         3.2015509052        5.8872181025       14.3304669740
  C         3.0475905431        5.8673939257       15.7680061681
  C         1.9329024129        6.4175894819       16.3909613584
  C        -1.2240431750        8.2318865150       13.9932328044
  C         0.0281005896        7.6935145556       13.3922580366
  C         0.1428567613        7.9542380490       11.9724992779
  C         0.7865713526        9.1070069856       11.4929846105
  C         0.5527804069        9.5517008219       10.2042326590
  C        -0.3209401523        8.8529371098        9.3844932212
  C        -0.8754775789        7.5674940885        9.7262352861
  C        -0.7464322198        7.2091942655       11.1163882053
  H        -1.2131150938        6.3135534782       11.5308431233
  H        -1.4490449134        7.0590824858        8.9394485488
  H        -0.5208157602        9.1578594933        8.3171732436
  H         0.7625681320       10.6148737167        9.9656184212
  H         1.3690706296        9.6043682496       12.2196954070
  C        -2.2008971739        8.9149946761       13.2499430505
  C        -3.2459750089        9.5767268113       13.8884644886
  H        -3.9095941863       10.2176537845       13.3071848323
  H        -2.0638774545        9.0458396553       12.2213557472
  C         1.8074275097        6.2112251447       17.8095295005
  C         0.9816521940        5.1360029995       18.3015611850
  C         0.8917056894        4.8275715547       19.6841435476
  C         1.7479897345        5.5066840474       20.5833213626
  C         2.5284739214        6.5870921638       20.1515829952
  C         2.5362458462        6.9464309467       18.8260911855
  H         3.0659361852        7.8117425405       18.5030632227
  H         3.2311105739        7.1055100716       20.8096537877
  H         1.8448589417        5.2282374457       21.6660796251
  H         0.3042739557        3.9283082802       19.8861271493
  H         0.4456830449        4.4524860063       17.5994881111
  C         4.0852789914        5.3222775961       16.6120929906
  C         5.2176861546        4.7400079636       16.1047175271
  C         5.3430025507        4.7046854586       14.7281223881
  C         4.4427441595        5.3076202872       13.8883682349
  H         4.6032079563        5.1920468868       12.7965995418
  H         6.2283941721        4.2858405237       14.2570254904
  H         5.9378217200        4.2855198436       16.8013466430
  H         3.9130784536        5.4122937640       17.6364774599
  C         2.0756040692        5.8478870233       12.1010481332
  C         1.1711008591        4.7724803622       11.7529871816
  C         1.2753996630        4.2053689631       10.4885029204
  C         1.9995659925        4.8567591775        9.4828548947
  C         2.7394145586        6.0080530685        9.7591926947
  C         2.8323138998        6.4480131085       11.0737320145
  H         3.4435519521        7.3313878875       11.2439505211
  H         3.3145162690        6.5230591382        8.9283367457
  H         2.0419347856        4.5255652894        8.4866413785
  H         0.7174948564        3.3493038070       10.1850071964
  H         0.5115410718        4.3698708986       12.5332181979
