140

  C         1.4852420800        1.2580421235       14.9234786371
  C         2.6008821957        1.9618197237       15.6208587555
  C         3.7919322447        2.3171134132       14.8985867358
  C         4.8658054852        2.9543890784       15.6265573191
  C         5.9697815616        3.5124120525       14.9923842096
  C         2.5113540305        2.3021149192       17.0684026108
  C         1.7138909657        3.3760056966       17.4516950924
  C         1.5761172772        3.6754967196       18.8097705575
  C         2.2726672021        2.9924538906       19.8129126834
  C         3.0417313387        1.9077873418       19.4468969321
  C         3.2518342850        1.5851000903       18.0405848903
  H         4.7240780706        2.9144589855       16.7164651860
  H         6.7949233349        3.9774252843       15.4977173141
  H         1.2022933437        4.0883883989       16.8372667222
  H         0.9041270276        4.5215096646       19.1120937395
  H         2.1221245076        3.2463446634       20.8817519390
  H         3.6783612537        1.4054707368       20.1534862626
  H         3.8030305630        0.6420811686       17.7395312631
  C         1.5021577325        1.3357304430       13.3981251087
  C         0.3763094285        0.7907811227       12.7545883290
  C        -0.6136824892        0.1175334074       13.4379011235
  C        -0.6499464480        0.0327896609       14.8861276863
  C         0.5291129225        0.5104454556       15.6017652630
  C         3.7580191755        2.2932415968       13.4590088068
  C         2.6539019763        1.9147632314       12.6926624893
  C         2.5847928302        2.2374003680       11.2559781785
  C         1.9483260878        3.3955832662       10.8888598164
  C         2.0087051581        3.8686231128        9.5928055917
  C         2.6293558530        3.1985584357        8.5548882870
  C         3.2736938043        1.9697147427        8.9088040976
  C         3.1802045567        1.4972233577       10.2358559912
  H         3.7197284838        0.5769100954       10.4799075701
  H         3.6047053576        1.2660984651        8.1006571753
  H         2.5351823179        3.6362932607        7.5594673499
  H         1.5032897530        4.7944465225        9.4128605097
  H         1.4066334332        3.8288841191       11.7104490441
  C         4.9603453632        2.7497907617       12.8523157578
  C         5.9280065349        3.3003294416       13.6047111364
  H         6.8239670476        3.5084658071       13.0099680155
  H         5.1201108700        2.7140451033       11.7925892227
  C         0.6238686603        0.0546942135       17.0870088607
  C         1.3239135821       -1.1049954614       17.3414417943
  C         1.4415500875       -1.5860220115       18.7270051482
  C         0.6853442372       -0.8997787220       19.6494690486
  C        -0.0372089429        0.2490529628       19.3002827103
  C        -0.0775049915        0.7787602120       18.0459035753
  H        -0.5330895941        1.7051039044       17.7884101708
  H        -0.5764312833        0.8087058836       20.0755288083
  H         0.7978583740       -1.1824638730       20.6716240002
  H         2.0540837470       -2.3853892060       19.0298507455
  H         1.8995687304       -1.6242154818       16.4972172198
  C        -1.6826917542       -0.7574557272       15.5554312258
  C        -2.7650463721       -1.2889339210       14.8620329161
  C        -2.7138203466       -1.1531181865       13.4588802603
  C        -1.6831936286       -0.5307876129       12.7794897073
  H        -1.7305778339       -0.4677245484       11.6738927231
  H        -3.4131799018       -1.7300960908       12.8260250373
  H        -3.5224761856       -1.8908029307       15.4330752668
  H        -1.5818068328       -0.9538868095       16.6470910716
  C         0.3242959769        0.4885192189       11.2710887657
  C         1.0791357891       -0.5899449816       10.8091762063
  C         0.9391758723       -0.9597480069        9.4421314580
  C         0.0706355102       -0.2674619502        8.5812835674
  C        -0.6744985111        0.8969815125        9.0023987507
  C        -0.5030365178        1.2287390191       10.3591280854
  H        -1.0402164261        2.0800943622       10.7222210552
  H        -1.2813284065        1.4776862113        8.3281380097
  H         0.0904923720       -0.6458337057        7.5837240382
  H         1.4407797761       -1.8524739135        9.1244311708
  H         1.5942012704       -1.2305903260       11.5476312061
  C        -2.0799877535        8.5475148421       14.9922225959
  C        -3.1700904793        9.1876177394       15.6875015403
  C        -4.2728042008        9.6956415943       14.9860390261
  C        -5.4407429007       10.2066592654       15.6755161619
  C        -6.4870144345       10.7033277914       14.9943081712
  C        -3.1385020486        9.4942833644       17.1183463960
  C        -2.2030696951       10.4810006625       17.5384985483
  C        -2.0638161891       10.9192791080       18.8269624577
  C        -2.8222967845       10.3008500778       19.8521309184
  C        -3.8172253567        9.3539341262       19.4633668438
  C        -4.0403401868        9.0274232336       18.1084398546
  H        -5.4401602496       10.3360625082       16.7565227981
  H        -7.3810880385       11.1266201156       15.4962842863
  H        -1.5162496188       10.8541181818       16.8458392288
  H        -1.3656524511       11.7384722991       19.0992482977
  H        -2.7396798132       10.4083073382       20.9231328440
  H        -4.6108836011        9.0603696786       20.1546585949
  H        -4.8448514301        8.2851975308       17.9146280457
  C        -2.1150899088        8.4525035720       13.5396270492
  C        -1.0891367982        7.7591349731       12.8560647608
  C         0.0433599565        7.3418955188       13.5698394687
  C        -0.0596339936        7.2124137188       15.0617273316
  C        -1.0679292210        7.8519976888       15.7665190600
  C        -4.3317117978        9.5844534165       13.5001850513
  C        -3.1976259128        9.0398459754       12.8542595734
  C        -3.0893247950        9.1675694928       11.3532277341
  C        -2.3497565777       10.2384347089       10.8154440712
  C        -2.3705022659       10.6247374215        9.4566708009
  C        -3.3019152438       10.0434654473        8.5966714885
  C        -4.1515936978        9.0903522531        9.1146722764
  C        -3.9923448346        8.6062843513       10.4283065533
  H        -4.6913507536        7.8142767357       10.7656803150
  H        -4.9913370316        8.7528473480        8.4470581995
  H        -3.3326725888       10.3758740359        7.5765693631
  H        -1.6723950449       11.4640449852        9.1689942157
  H        -1.6556420809       10.7927640268       11.4141409965
  C        -5.4503230334       10.1571456216       12.8648644429
  C        -6.4912837239       10.7023457493       13.6124024445
  H        -7.2401167271       11.1322121518       13.0604364475
  H        -5.6105177668       10.1483223207       11.7537730795
  C        -1.3518178742        7.3606821288       17.1416728796
  C        -2.2445796758        6.2752704104       17.2361375999
  C        -2.2917805566        5.4935046652       18.3519029466
  C        -1.5114841552        5.7908985168       19.5025960008
  C        -0.7890087518        6.9649160318       19.5197446318
  C        -0.6504421277        7.7051607588       18.2819964867
  H        -0.0615520836        8.6210690956       18.2564214769
  H        -0.3257205740        7.2840966424       20.4077751450
  H        -1.7472641930        5.3209725037       20.4983804533
  H        -2.8943104824        4.6186825458       18.2454261260
  H        -2.8695830834        6.0661417716       16.3143332111
  C         1.0505245573        6.4752326949       15.7286678685
  C         2.0125559924        5.8262623979       14.9926783314
  C         2.0309502746        5.8795743967       13.5981646025
  C         1.0858496646        6.5867658596       12.8851129669
  H         1.1658275536        6.5901691020       11.7899398772
  H         2.7119817428        5.3537674854       12.9644078115
  H         2.7878425955        5.2933117339       15.5373943545
  H         1.1358370126        6.3820501594       16.7739787469
  C        -1.0366051500        7.3496421026       11.4083055276
  C        -1.7737857445        6.1792801443       11.0433053349
  C        -1.6940645216        5.6654152469        9.7177175490
  C        -0.8768219913        6.2743720416        8.7795562461
  C        -0.1174351192        7.3849135864        9.1884336317
  C        -0.2304890981        7.9722249679       10.4643500154
  H         0.3222402658        8.8883157317       10.6679790222
  H         0.4170108740        7.8901855016        8.4573759955
  H        -0.6751597152        5.7880113689        7.8342412491
  H        -2.3156257452        4.8613151816        9.2912827326
  H        -2.3948820854        5.8259977763       11.8781692305
