140

  C         3.4092663016       -0.1737325755       14.7247492429
  C         4.4504724805        0.5897305576       15.3977197431
  C         5.5070689680        1.1937620594       14.6788264290
  C         6.4957398716        2.1030651289       15.1828912791
  C         7.4191967335        2.7526859348       14.3810874316
  C         4.2251528187        1.1472567056       16.7686632884
  C         3.3055204318        2.1766528895       16.9391121515
  C         3.0537463736        2.7172995545       18.2020032559
  C         3.9351565298        2.3576730923       19.2477063297
  C         4.8921112986        1.4075209759       19.1139739618
  C         4.9732910479        0.7653780451       17.8792548430
  H         6.5723513925        2.2439827740       16.2672787994
  H         8.0648472293        3.5269133118       14.7576064796
  H         2.7446022680        2.5211198782       16.0858773968
  H         2.2341283681        3.4188214962       18.3754276424
  H         3.8157356353        2.9531245254       20.1652700663
  H         5.5117965206        1.0656049706       19.9058642630
  H         5.6443520026       -0.0890970426       17.7529959923
  C         3.3815282646       -0.2438854881       13.2243338454
  C         2.2730857583       -0.8876750398       12.6137292988
  C         1.1259820018       -1.3621108980       13.3724542935
  C         1.1733885836       -1.2703681775       14.7900347165
  C         2.3245418930       -0.7365126799       15.4531076918
  C         5.4526230299        1.0802371808       13.1533095246
  C         4.3715536024        0.4353237354       12.4731100159
  C         4.1090448790        0.9762071079       11.0882931149
  C         3.2514903761        2.0701991531       11.0412433478
  C         2.9955596736        2.6873634787        9.7921137481
  C         3.5767023050        2.2725863505        8.6206055505
  C         4.4939414722        1.1866770957        8.7046455345
  C         4.7386861399        0.5206581699        9.8864815533
  H         5.2329035580       -0.4450465708        9.8262770699
  H         5.0951909814        0.7989458142        7.8309971121
  H         3.3469798455        2.7538887923        7.6946729024
  H         2.2984272380        3.5516044728        9.7743712589
  H         2.8117069578        2.4712944832       11.9598966533
  C         6.5773310163        1.6630599088       12.4470911789
  C         7.4721699214        2.4690552831       13.0104339173
  H         8.2445648285        2.9356649344       12.5065859134
  H         6.6614596376        1.5333682716       11.3290174095
  C         2.3282875518       -0.9202923667       16.9609414262
  C         3.0220377461       -2.0579270422       17.5094314773
  C         2.9341278650       -2.3224886176       18.8482698150
  C         2.0799538042       -1.5753160336       19.6604935474
  C         1.3056442825       -0.5267716434       19.1091529676
  C         1.4686428141       -0.2065073794       17.7526784271
  H         0.9511867425        0.6224062726       17.3925538271
  H         0.6784342208        0.0595381993       19.7595242606
  H         2.1701267966       -1.7622185163       20.7462112149
  H         3.6490462477       -3.0219049903       19.2490233068
  H         3.8150810778       -2.6201358280       16.9317259827
  C        -0.0279273258       -1.6762281709       15.5649236775
  C        -1.0706609500       -2.2874805528       15.0449816501
  C        -1.0931590234       -2.3577997655       13.5791290676
  C        -0.0111330815       -1.9885617089       12.7775560973
  H        -0.1330075695       -2.1671401550       11.7094106361
  H        -2.0079821717       -2.5464020609       13.0669783060
  H        -1.8499283852       -2.6918529256       15.7004531670
  H         0.0613667363       -1.6113622515       16.6412919581
  C         2.3404769208       -1.2151673551       11.1495939971
  C         3.1549446989       -2.2062519239       10.6748525400
  C         3.1579247624       -2.6523517529        9.3388616861
  C         2.3702465483       -1.9607136015        8.4370710016
  C         1.4668932436       -0.9892077515        8.9444336233
  C         1.4977577436       -0.5616362449       10.2061535231
  H         0.7538550025        0.1786861729       10.5065089036
  H         0.8279883124       -0.4358025202        8.2355580147
  H         2.2946073988       -2.2639155081        7.3669609824
  H         3.7774114236       -3.4766814468        9.0341121309
  H         3.8625353297       -2.6548032907       11.3063239697
  C        -0.4075795506        7.1394794248       14.8896105647
  C        -1.3746916799        7.8715365280       15.6674172985
  C        -2.4860358723        8.4438705791       15.0209433107
  C        -3.5313441308        9.1354685284       15.7024740233
  C        -4.5210709941        9.7524818343       15.0431731758
  C        -1.1453917653        8.3204552590       17.0554671451
  C        -0.3177167541        9.4632896874       17.2908657521
  C        -0.3124239042       10.0364871125       18.5413161938
  C        -1.1353329080        9.5581223589       19.5566216528
  C        -1.8424342893        8.3483030490       19.3505254037
  C        -1.8555590287        7.7309085547       18.0432674166
  H        -3.4354796618        9.1846203825       16.7834580962
  H        -5.3771471923       10.0289291235       15.6126052038
  H         0.3568653303        9.7645220026       16.4699694587
  H         0.4829361215       10.7858165051       18.7479425470
  H        -0.9634873026        9.8798899160       20.5974582603
  H        -2.3910214239        7.9255227546       20.1769181161
  H        -2.5000700158        6.8713920555       17.7697168377
  C        -0.4011253375        7.1448587161       13.4522811508
  C         0.6376619160        6.4075208075       12.7840798472
  C         1.6874744294        5.7780205930       13.5025758410
  C         1.7506535812        5.9031684599       14.8920577365
  C         0.6154982544        6.4356454453       15.5471339062
  C        -2.4779482383        8.5008715656       13.5875767796
  C        -1.4507871765        7.8740106107       12.8207081960
  C        -1.2376115727        8.3219178038       11.4144219571
  C        -0.3979181574        9.4082694537       11.2164926835
  C        -0.1610969632        9.8992772425        9.9716387075
  C        -0.7797865959        9.3409497559        8.8485178324
  C        -1.8272750348        8.5076007351        9.0745046686
  C        -1.9917809412        7.8673555631       10.3283917360
  H        -2.7070863031        7.0399840682       10.3772922518
  H        -2.4098790154        8.0707828494        8.2425401896
  H        -0.6012925234        9.6477042816        7.8016311319
  H         0.4882153660       10.7314937303        9.8315671535
  H         0.1238750260        9.7786165631       12.1056819449
  C        -3.5041784417        9.1750422009       12.9220982753
  C        -4.5618699791        9.8140329703       13.6019955910
  H        -5.4698425664       10.2030885145       13.1198019189
  H        -3.5162635441        9.3265048834       11.8461034093
  C         0.6293994473        6.1286491492       17.0382875065
  C        -0.1558264043        5.1315392500       17.6532324028
  C         0.0034906791        4.8034216717       18.9985903391
  C         0.9719016483        5.5183542068       19.7355041424
  C         1.7498374773        6.5328160167       19.1938577750
  C         1.5757568566        6.8154605675       17.8323467215
  H         2.2980598428        7.4975242695       17.3598054320
  H         2.3136157365        7.1647175555       19.8595235365
  H         1.1783034191        5.2868709493       20.8170976379
  H        -0.5613095246        3.9603721569       19.4201523290
  H        -0.7616272454        4.5442182987       16.9954088699
  C         2.8938417054        5.3119295127       15.5380318488
  C         3.9443514719        4.7315606479       14.8468617231
  C         3.8301405516        4.6283402220       13.4515676232
  C         2.7298856095        5.0963189686       12.7384820506
  H         2.6084620368        4.9660378151       11.6635934894
  H         4.6549665670        4.1280887350       12.9703396907
  H         4.7585502559        4.2451231341       15.4126854385
  H         2.9079066706        5.3358332488       16.6161477918
  C         0.6306310330        5.9835381356       11.3556943424
  C        -0.3555964363        5.0923659237       10.8950519366
  C        -0.5673285188        4.8312078247        9.5358698688
  C         0.2786225072        5.4221744945        8.5818165513
  C         1.3527216830        6.2903559338        8.9792185762
  C         1.4461715637        6.5611133767       10.3907722956
  H         2.1713998945        7.3253684158       10.6768959030
  H         1.9785336616        6.6609917493        8.1821201993
  H         0.1121813990        5.3591004863        7.5055546417
  H        -1.4117221008        4.1652652131        9.3161342148
  H        -1.0373167413        4.5896643987       11.5780698855
