140

  C         5.5320460394       -0.4134488981       16.0246147522
  C         6.4184973087        0.3830774225       16.7935893107
  C         7.5188923949        1.0462837493       16.2177530072
  C         8.6219947783        1.5817767386       17.0302395741
  C         9.7447616169        1.9504146685       16.3500467226
  C         6.2794135641        0.7896108094       18.1891925617
  C         5.6284643710        1.9677415372       18.5916858185
  C         5.5000797677        2.3836791897       19.9441807350
  C         6.2257822223        1.7168377081       20.8979302332
  C         7.0853078790        0.6801203218       20.4374390921
  C         6.9872319374        0.1111692959       19.1840600405
  H         8.6720005079        1.6127469651       18.1029299535
  H        10.6174279474        2.1639316229       16.9207447697
  H         5.0805985168        2.4985156389       17.7942646828
  H         4.6735248732        3.0722103395       20.2952484663
  H         6.2729092818        1.9363995190       22.0073182773
  H         7.8419505696        0.1928334064       21.1137424114
  H         7.5885015857       -0.7360010565       18.8978946020
  C         5.6421378021       -0.3954046197       14.5384556257
  C         4.7329568353       -1.2200659117       13.7675091869
  C         3.5377734779       -1.7116522450       14.4422137326
  C         3.4468739416       -1.6763182537       15.8763316023
  C         4.5314529868       -1.1688139365       16.6332501111
  C         7.6408611431        1.0699954043       14.7786063657
  C         6.5850636637        0.4953376509       13.9884047743
  C         6.6666299769        0.8450256214       12.5312469997
  C         6.1618296448        2.0819682792       12.2018390494
  C         6.3909086474        2.6406655993       10.9290793212
  C         7.0498662650        1.8554654175        9.9271198628
  C         7.6211674215        0.6367000102       10.2697326951
  C         7.5130347913        0.1805373198       11.5555115464
  H         8.0719607581       -0.6996173133       11.8897096855
  H         8.1971679107        0.0706683370        9.5544014559
  H         7.0800324577        2.2183771337        8.9180579381
  H         6.0468822004        3.6455036695       10.6414435890
  H         5.5240259453        2.7171492533       12.7885113746
  C         8.7304933586        1.7481634660       14.1971517390
  C         9.8006064966        2.1273373442       14.9874807641
  H        10.6830342099        2.5813066007       14.5552443881
  H         8.9000317616        1.8303835956       13.1477881272
  C         4.5459164989       -1.5010164766       18.1477323534
  C         5.3348329824       -2.5394403549       18.6856720709
  C         5.1826996904       -2.8269445010       20.0267619137
  C         4.3827617254       -2.0486406240       20.9083145560
  C         3.6549920540       -1.0196225422       20.3735391985
  C         3.8172270484       -0.7028962197       19.0099602555
  H         3.2975376827        0.1698574665       18.6180536680
  H         3.0980107737       -0.3223538227       21.0136601953
  H         4.3201763870       -2.2604312315       21.9609601454
  H         5.8150223010       -3.6448360497       20.3908836385
  H         6.0610351530       -3.0921122897       18.1375413781
  C         2.4059448726       -2.3569462686       16.6236936878
  C         1.3232478146       -2.8669511445       15.9096924272
  C         1.3195402548       -2.7594017382       14.4579226371
  C         2.3939805726       -2.2702101041       13.7773209771
  H         2.2334774101       -2.1923302871       12.6988186941
  H         0.4228568531       -3.1582189795       13.9827565808
  H         0.4228656054       -3.3267211604       16.3646865165
  H         2.3245169793       -2.2569441269       17.6508261252
  C         4.8327612775       -1.5252799527       12.2759420144
  C         5.5268353116       -2.6192945996       11.7433092380
  C         5.5736911445       -2.8302721936       10.3550979377
  C         4.7840271353       -1.9973083423        9.5421782648
  C         3.9581269968       -1.0302618375       10.0483476846
  C         3.9767141806       -0.7411052465       11.4339232187
  H         3.1864343511       -0.1577096503       11.9281619736
  H         3.3548762460       -0.4152067383        9.3760710094
  H         4.8613774524       -2.1843492701        8.4153206893
  H         6.2647068057       -3.5801459984        9.9228909723
  H         5.9704249832       -3.2329493748       12.4770215160
  C         2.0241129384        6.8458687611       16.1673339609
  C         0.9145231911        7.3851407051       16.7783315686
  C        -0.1366929329        7.9163748761       16.0348239539
  C        -1.2745038352        8.5253096774       16.7274842316
  C        -2.2727221227        9.2497577726       16.0615558220
  C         0.9371358213        7.8159892652       18.2695322609
  C         1.6423577809        8.9866403880       18.6200831982
  C         1.5757134871        9.4771269127       19.8830604354
  C         0.9116241138        8.7874197694       20.9450558345
  C         0.2222648557        7.6617732296       20.5944728425
  C         0.2131102590        7.1490916521       19.2525046206
  H        -1.2538733625        8.5836863626       17.8320253650
  H        -3.0969856935        9.7625608795       16.5117025788
  H         2.1635643809        9.4913829370       17.7718343512
  H         2.0178361774       10.4249065610       20.1358012272
  H         0.9322284270        9.2111991538       21.9513833878
  H        -0.3048024877        7.1016394498       21.3733662847
  H        -0.4006834382        6.3301627062       19.0566473937
  C         2.0953390539        6.8717066845       14.6398902175
  C         3.1604225214        6.2106512928       14.0332658636
  C         4.2634491114        5.6300351591       14.8041358017
  C         4.1957149232        5.5873698841       16.1909107129
  C         3.0593150149        6.1272556625       16.8404743295
  C        -0.1250502586        8.0202454380       14.5944538992
  C         1.0849217477        7.5593321466       13.9457064114
  C         1.0898651549        7.9107887143       12.4869645362
  C         1.8986886927        8.9866487293       12.0598328603
  C         2.0301087104        9.2901490945       10.6707320762
  C         1.3238821569        8.6933891228        9.6313098029
  C         0.4595707420        7.6852177508       10.0445083555
  C         0.4009880779        7.2278784429       11.4164666049
  H        -0.1480786471        6.3141812297       11.6927561883
  H        -0.1883424593        7.1249381127        9.3378674851
  H         1.4990558535        9.0042050098        8.6056236331
  H         2.6662251031       10.1233920849       10.4053644110
  H         2.3886982844        9.6042876021       12.7867885699
  C        -1.2887650232        8.5973147632       13.9134127313
  C        -2.2942259564        9.2516306496       14.6136415848
  H        -3.0659964644        9.7026675532       14.0229110047
  H        -1.3218023417        8.5303089374       12.8342970678
  C         2.9066303934        5.6794941690       18.2315863193
  C         2.1769336975        4.5552538952       18.6366219300
  C         1.9505359463        4.2640885290       20.0014089411
  C         2.6688054989        4.9656329083       20.9730047098
  C         3.4939962567        6.0588250320       20.5627380782
  C         3.6191830996        6.4031778458       19.2295432181
  H         4.1641376118        7.2621195808       18.8922785912
  H         4.0649214352        6.5477802052       21.3119112115
  H         2.6931853236        4.5344779394       22.0089142407
  H         1.2248655863        3.5264590431       20.2954097102
  H         1.5784737277        3.9658415269       17.9350945419
  C         5.2450443726        4.8995228066       16.9070990362
  C         6.4532988601        4.5699333263       16.2415234069
  C         6.4177091530        4.4810210396       14.8749751844
  C         5.3641337935        5.0207389548       14.1521826494
  H         5.4353787090        5.0292513837       13.1049685289
  H         7.2583691864        4.1651718361       14.3007164650
  H         7.2762780468        4.1122582311       16.8428370302
  H         5.1201810777        4.7363633353       17.9173524864
  C         3.2470415113        5.9560457459       12.5165434124
  C         2.8505493832        4.7492279836       12.0996277514
  C         2.9250939703        4.3774795565       10.7398166293
  C         3.5232699138        5.2461752988        9.8029879599
  C         3.9976523586        6.4548765343       10.2061175977
  C         3.9262237272        6.7855634761       11.5647322374
  H         4.3133039734        7.7246184136       11.9256788695
  H         4.4943270402        7.0828573856        9.4752447534
  H         3.6021474915        4.9424030577        8.7670368805
  H         2.6748310134        3.3708818850       10.3736011700
  H         2.4318855240        4.0662173917       12.8891370548
