140

  C         3.4053515908       -0.0663054650       14.4043420298
  C         4.4276025800        0.6261790988       15.1714028395
  C         5.5580115924        1.2447014103       14.5386631468
  C         6.5721899824        1.9360097734       15.2713471954
  C         7.5554685312        2.5980014559       14.6195885940
  C         4.4215733180        0.8074672151       16.7025502092
  C         3.8740351997        1.9449217914       17.2259464816
  C         4.1100025503        2.3333478196       18.5457208400
  C         4.8212095478        1.4685491973       19.4152215796
  C         5.3221934921        0.2236087269       18.8970109573
  C         5.1599865839       -0.1039766466       17.5439883903
  H         6.6123231553        1.9633762546       16.3637636827
  H         8.3536356343        3.0549207628       15.1989001507
  H         3.2819811104        2.6192584659       16.6014693471
  H         3.6202633885        3.2155063417       18.9828183526
  H         5.0368018301        1.7424241521       20.4539935214
  H         6.0143309193       -0.4299020310       19.4852475871
  H         5.4552292355       -1.0661446910       17.2254520331
  C         3.4272816430       -0.0559709979       12.9052932739
  C         2.3680372287       -0.7333475901       12.2049871671
  C         1.2503905627       -1.2853207281       12.8732378081
  C         1.1923986972       -1.2244878412       14.3894335950
  C         2.3209690950       -0.7775235457       15.0758693342
  C         5.5171651344        1.2980488906       13.0415235764
  C         4.5054813789        0.6586716371       12.2476079079
  C         4.4297268748        1.1608460227       10.8443471963
  C         3.5623482343        2.2491840624       10.5887209914
  C         3.5105534897        2.6963538524        9.2656199891
  C         4.1594915857        2.0102734269        8.2256385379
  C         4.9998133275        0.9342649530        8.5136321326
  C         5.1360266580        0.5533378596        9.8079093111
  H         5.7544387985       -0.3449849651       10.0130155593
  H         5.6719907483        0.5735786439        7.7303892680
  H         4.0573993074        2.3938850228        7.1689587330
  H         2.8594901799        3.5030610114        8.9344738616
  H         2.8802423432        2.6583617930       11.3565392434
  C         6.5853127070        2.0450343007       12.4353595910
  C         7.6459601779        2.5902127746       13.2022262210
  H         8.4622784519        2.9464829359       12.6707579355
  H         6.6554988251        1.8759966068       11.3303319952
  C         2.3784659926       -1.0202500628       16.5797129602
  C         2.9466530651       -2.2599975941       16.9995868928
  C         2.7809709945       -2.7819551261       18.2472496001
  C         2.0438013350       -2.0265723342       19.1495458526
  C         1.4592920694       -0.7973908220       18.8454558186
  C         1.6280574475       -0.2941104144       17.4624222877
  H         1.1381302476        0.6535221486       17.2089156063
  H         0.9015289120       -0.1833156505       19.5882482686
  H         1.9946220593       -2.3996174346       20.1409638765
  H         3.2975018546       -3.6459036447       18.5425126065
  H         3.5439972042       -2.6760226446       16.2009156869
  C         0.0633238962       -1.7926918241       15.0214918073
  C        -0.9997955808       -2.3456290033       14.2999380901
  C        -0.9841562643       -2.4832132038       12.9168919833
  C         0.1024163600       -1.9015838856       12.2623367460
  H         0.1486257947       -2.0636984060       11.1812099844
  H        -1.7592270415       -3.0031106187       12.3883565844
  H        -1.9222267418       -2.5176163142       14.8719941008
  H        -0.0636272952       -1.8852358072       16.0887661376
  C         2.3388587793       -0.9066421237       10.7456296528
  C         3.0966831787       -1.9328903167       10.2017131048
  C         2.9650154448       -2.2292658308        8.8677990510
  C         2.0427560011       -1.5523976270        8.0694951949
  C         1.3442299228       -0.4383856730        8.6094099290
  C         1.3975078560       -0.1699650630        9.9966524647
  H         0.8240346750        0.5647229947       10.5249659211
  H         0.6547151489        0.1564376156        8.0327282232
  H         2.0161944931       -1.8234837407        7.0657452814
  H         3.5228336561       -3.0554718257        8.4348442705
  H         3.8142307520       -2.5031374397       10.8880314491
  C        -0.3352404263        7.2924491428       14.3703322005
  C        -1.4009094550        8.0920041878       15.0110454286
  C        -2.5278618560        8.5714152878       14.3684587509
  C        -3.5754083376        9.3399447078       15.0238146041
  C        -4.6466409628        9.7989816050       14.3225367870
  C        -1.2854456065        8.3247470546       16.4553228831
  C        -0.6117324402        9.4944584484       16.8946567104
  C        -0.6035473016        9.8807418464       18.2280419415
  C        -1.3926699446        9.1499057134       19.1291572596
  C        -2.1904079768        8.0453700882       18.7264471945
  C        -2.1777020642        7.7162087546       17.3495405076
  H        -3.5120857525        9.5054795747       16.0859000715
  H        -5.4141585767       10.3132028747       14.8620904219
  H         0.1342449954        9.9386773801       16.2033741251
  H         0.0286554871       10.7149676647       18.4801122116
  H        -1.4434753582        9.4375479213       20.1803566758
  H        -2.8503904971        7.5534911122       19.4355455150
  H        -2.8612720265        6.9034354400       17.0851418376
  C        -0.3674164993        7.2810340531       12.9385267398
  C         0.7060990631        6.5687931025       12.3354445223
  C         1.7491274750        5.9776429068       13.0563389646
  C         1.6439361151        5.9283510554       14.5060141105
  C         0.6136286612        6.6409124006       15.1475261832
  C        -2.5445862482        8.4372249284       12.9340515471
  C        -1.4433098899        7.9727981012       12.2370461243
  C        -1.3604976006        8.3624140708       10.7961799041
  C        -0.8606329641        9.5802573669       10.3246194595
  C        -0.9210231296        9.9575340285        9.0108047041
  C        -1.5404176820        9.1169262032        8.0246031395
  C        -2.0793213058        7.8959365750        8.4638269849
  C        -1.9632727740        7.5695512398        9.8472034954
  H        -2.4193941390        6.6707596254       10.1897512130
  H        -2.5356423317        7.1669115975        7.7179964472
  H        -1.5682246855        9.3828090138        6.9634151488
  H        -0.5979342951       10.9499685104        8.7176671900
  H        -0.3972544827       10.3078373211       11.0112941316
  C        -3.5846008655        9.1310001981       12.2713905922
  C        -4.6014111123        9.7911904184       12.9217943625
  H        -5.3767372140       10.2662538515       12.3566653621
  H        -3.4025688573        9.2361374289       11.2266570324
  C         0.5362167752        6.3747127975       16.6060374719
  C        -0.2655575571        5.3511675537       17.1557228997
  C        -0.0989520530        5.0532180158       18.4862815343
  C         0.9352598686        5.6199027771       19.2350601293
  C         1.7032782813        6.6591585017       18.7502998710
  C         1.5528996065        7.0106705806       17.3994893669
  H         2.1425811772        7.8009598802       16.9968208897
  H         2.5234728686        7.0886732864       19.3724765140
  H         1.0439710867        5.4365142309       20.2996114292
  H        -0.6805594554        4.2508445882       18.9457654395
  H        -1.1483525156        4.9057929732       16.7155754227
  C         2.7378476825        5.3248811508       15.2177255421
  C         3.8006094300        4.9003496961       14.5058302280
  C         3.8952426533        4.8724703253       13.0873341665
  C         2.8678112867        5.3894378146       12.3346553131
  H         2.8144138455        5.3381115612       11.2593548333
  H         4.6811332697        4.2571532506       12.6814930704
  H         4.6694151845        4.4797655778       15.0586646635
  H         2.7356514352        5.3772387160       16.3243570670
  C         0.6793854679        6.2672711984       10.8968054874
  C        -0.0048601715        5.1146912170       10.4150724033
  C         0.0683813366        4.7424728892        9.0439744894
  C         0.8606387099        5.4975201293        8.1956895792
  C         1.6922560402        6.4967171835        8.6732841625
  C         1.5383362355        6.9164680735        9.9863045888
  H         2.1776827507        7.7164732220       10.3353516351
  H         2.3274991364        7.0312433533        7.9819680060
  H         1.0275313723        5.2829049276        7.1548917404
  H        -0.3158767981        3.7636727384        8.7991781869
  H        -0.6129409101        4.5268324679       11.0948946587
