140

  C         5.2261440606        0.0774939608       16.2690500517
  C         6.3523734022        0.7196165935       16.8819124436
  C         7.3843574691        1.2961272656       16.1398901594
  C         8.5702821469        1.8005398561       16.7843478405
  C         9.6211704760        2.3108583260       16.0446917534
  C         6.4108454694        1.1090284849       18.4021189697
  C         5.8818952000        2.3751293403       18.6327731186
  C         5.6999239466        2.9471029965       19.9450491525
  C         6.1249757402        2.2007613307       21.0186638322
  C         6.8336712037        1.0059101587       20.7803163120
  C         6.8830712831        0.4244616688       19.5399175220
  H         8.6267241761        1.8309825827       17.8649729571
  H        10.5081377769        2.5917284325       16.6313212856
  H         5.4667016796        3.0000112818       17.8386727478
  H         5.2060720117        3.9178539557       20.1282498257
  H         5.8222650836        2.5381592348       22.0211018721
  H         7.2419470343        0.4112266272       21.5475763843
  H         7.3387133600       -0.5760151329       19.3099141239
  C         5.1566086836        0.2121824781       14.8043187192
  C         4.1213577372       -0.5044598475       14.0845601674
  C         3.0382115335       -1.1482009323       14.7645176984
  C         3.1471333941       -1.2098418112       16.2224201637
  C         4.2090829811       -0.6863343290       16.9900520414
  C         7.3687887309        1.3350243306       14.7131659300
  C         6.2067860188        0.8802165549       14.0579740040
  C         6.1217427696        1.3217103497       12.6676759513
  C         5.2854007790        2.3377767823       12.3549660648
  C         5.0484827582        2.8159791144       11.0272406817
  C         5.8360751663        2.2861852797        9.9695706643
  C         6.8569266446        1.3686981273       10.2894952572
  C         6.9764222673        0.8748403251       11.5893674014
  H         7.7140460009        0.0731573638       11.7753736961
  H         7.5382132818        0.9185109496        9.5403958097
  H         5.5739558539        2.5979322866        8.9708637054
  H         4.2721624193        3.6012903591       10.8918512087
  H         4.6109534490        2.7508719467       13.1447528593
  C         8.5133396307        1.9164789077       13.9678061137
  C         9.5159526484        2.5199555622       14.6280562523
  H        10.2768561563        3.0058829438       13.9698858168
  H         8.3413454657        2.1307580066       12.8935911595
  C         4.1914681741       -1.0182381776       18.4496040457
  C         4.8922598474       -2.1067591208       18.8550235792
  C         4.6762113014       -2.4931049696       20.2502074811
  C         3.8520182947       -1.8564861198       21.1414665632
  C         3.1488871597       -0.7226075698       20.6726038299
  C         3.3846262835       -0.2980812620       19.3826204289
  H         2.7703430512        0.5205293577       18.9569970073
  H         2.3270161508       -0.3183110067       21.3175527061
  H         3.6673263690       -2.2626236349       22.1504515950
  H         5.1379490965       -3.4213746088       20.6418905685
  H         5.6258886830       -2.6550527432       18.2492078408
  C         2.0666348083       -1.8939762866       16.9316016229
  C         0.9897073323       -2.3440441806       16.1819209042
  C         0.8718291838       -2.2483560370       14.7716514578
  C         1.9915561309       -1.8635851720       14.1032194580
  H         1.9816509129       -1.9510428932       12.9917346145
  H         0.0862696435       -2.8628962630       14.3676161462
  H         0.1095308861       -2.7500218863       16.6970555530
  H         2.1940250117       -1.9428031954       18.0289825392
  C         4.2279387506       -0.8024805514       12.5661319806
  C         5.1266422656       -1.7805201515       12.1183290883
  C         5.0905172562       -2.3329964421       10.8420660407
  C         4.1076496392       -1.7829537331        9.9794386203
  C         3.2518714533       -0.6867986836       10.3480167344
  C         3.3908027326       -0.2067088231       11.6168696966
  H         2.7139911745        0.4917459161       12.0566927942
  H         2.4131583304       -0.2407174664        9.7056120540
  H         4.0248927293       -2.2455284183        8.9914382560
  H         5.8642660648       -3.0580999849       10.4842659137
  H         5.8160278448       -2.2050881844       12.8439873236
  C         1.7523758819        7.2746522752       15.8732050775
  C         0.7420484275        7.9910774803       16.5198283359
  C        -0.4684649325        8.4154100081       15.8241883103
  C        -1.6960195475        8.8823551488       16.4375135982
  C        -2.7958296315        9.2341728222       15.7091071007
  C         0.7155421326        8.2733289719       17.9799219158
  C         1.3959824340        9.3977046973       18.4876773215
  C         1.3059580621        9.6222626324       19.9287272493
  C         0.3652623527        8.9678167422       20.7098994585
  C        -0.2947056869        7.8643015429       20.1561178300
  C        -0.0823322449        7.5338782849       18.7999961642
  H        -1.8129273596        9.0305157627       17.5481724572
  H        -3.6936715778        9.6850260252       16.1413953152
  H         2.0619318567       10.0048293759       17.8834546244
  H         1.9241087121       10.4318737073       20.2649374604
  H         0.2544016472        9.1149166567       21.7773810390
  H        -1.1142172905        7.3761218211       20.6758786055
  H        -0.6854573647        6.7041326045       18.4292292283
  C         1.8242177967        7.2984275255       14.3972256513
  C         2.8268832916        6.6028266904       13.7149001348
  C         3.7962094135        5.9207196294       14.4551576932
  C         3.7231632256        5.8674694528       15.8967201301
  C         2.7016392372        6.4413188630       16.5924373620
  C        -0.3735823992        8.3610265679       14.3590593298
  C         0.7681252554        7.9162267030       13.6718405693
  C         0.8218653009        8.3102397904       12.2634550650
  C         1.4662158810        9.5250939813       11.9344159672
  C         1.4295484659       10.0061269452       10.6473099051
  C         0.5868391784        9.4058873178        9.7086151845
  C        -0.0086241489        8.1926499603        9.9625152108
  C         0.0929372840        7.6651340684       11.2543640096
  H        -0.3553575913        6.6966178017       11.5036918201
  H        -0.6321599510        7.8402351889        9.1806135797
  H         0.4822067400        9.7995183767        8.6742319866
  H         1.7427904092       10.9807373136       10.4342963103
  H         2.1495324753        9.9756986546       12.6407597799
  C        -1.5133630245        8.8131576813       13.6371830055
  C        -2.6813591058        9.1611813432       14.2733347406
  H        -3.5219087375        9.5557575375       13.7115034139
  H        -1.3742692292        8.8688967105       12.5580141769
  C         2.5361409504        6.0942634471       18.0443883106
  C         1.8888133124        4.9009259367       18.3260272576
  C         1.7517284901        4.4104330229       19.6672189601
  C         2.1155930233        5.2876356656       20.7360512008
  C         2.7654401614        6.4767113560       20.4457535330
  C         3.0164683562        6.8273153042       19.0917003002
  H         3.4356963523        7.8194137354       18.8716797200
  H         2.8889848029        7.3228786516       21.1264418431
  H         1.9613945103        4.9475251913       21.7652063522
  H         1.3118538068        3.4769709391       19.9394612172
  H         1.4884969247        4.2811702319       17.5048155317
  C         4.8115997079        5.2592863985       16.6115404091
  C         5.8186551463        4.6286258406       15.9622605417
  C         5.9397947928        4.6878159706       14.4981297997
  C         4.9295513374        5.3622034562       13.8143309469
  H         5.0981976979        5.4855239162       12.7522282611
  H         6.8634137200        4.3578572721       14.0865576880
  H         6.6409355519        4.2276937896       16.4570135982
  H         4.8236509315        5.4176621880       17.7168606323
  C         2.7363286793        6.2609359934       12.2922322749
  C         1.9087456562        5.1990589187       11.9769872820
  C         1.7235422707        4.6521003027       10.6469570184
  C         2.3142792707        5.3377947261        9.5807543335
  C         3.2312800968        6.3841631367        9.8911200709
  C         3.5431444282        6.7191028432       11.2257683425
  H         4.2115428844        7.5853159408       11.4127195704
  H         3.8247163315        6.8774981599        9.1098724362
  H         1.9806126582        5.1030134264        8.5671639133
  H         1.1345752267        3.7380850867       10.5267992918
  H         1.3259068902        4.7280462134       12.7773419660
