140

  C        11.8657270405        0.8104730977        1.5507397882
  C        12.8219382828        1.5206459694        2.3087466709
  C        13.9106079537        2.1376050308        1.6677819881
  C        14.9113075489        2.8859291123        2.4076772863
  C        16.0519964146        3.3026361741        1.7989370279
  C        12.6397156638        1.9004222343        3.8292893654
  C        11.7553157098        2.9178435995        4.1760498667
  C        11.6868309015        3.4871092769        5.4190786732
  C        12.5651863475        3.0160356624        6.3871884442
  C        13.4983552346        2.0679877053        6.0773844174
  C        13.4848625239        1.4751725022        4.8246458859
  H        14.7551967178        2.9791117219        3.4376184375
  H        16.8069331763        3.8010919710        2.3798436990
  H        11.0578896506        3.3249746487        3.4123998544
  H        10.9200044130        4.1854267883        5.7589679856
  H        12.5061483264        3.2763642797        7.4403211660
  H        14.1437003975        1.7448002776        6.8661480421
  H        14.3520607756        0.8626622765        4.6025911362
  C        11.9071715859        0.8547692687        0.0740880325
  C        10.8916688422        0.2094358901       -0.6902553061
  C         9.8127514306       -0.4854383273       -0.0985632815
  C         9.7151127638       -0.5819149365        1.3630330175
  C        10.7958725652        0.0179595115        2.1117252692
  C        13.9713159767        2.1118849843        0.1421070560
  C        12.8845593614        1.6046967759       -0.6583141101
  C        12.8797787072        2.0289819246       -2.0934804711
  C        12.1808115962        3.2131571624       -2.4963877542
  C        12.1649724048        3.6638491326       -3.8259514968
  C        12.9749094142        2.9861341460       -4.7597870556
  C        13.7935849573        1.8825378628       -4.3865513649
  C        13.7575995251        1.4557076846       -3.0459884953
  H        14.3713820505        0.6282240582       -2.7872613632
  H        14.4414517712        1.4157757009       -5.0827485090
  H        12.9384068623        3.2452237947       -5.7842311080
  H        11.4861577973        4.4742468989       -4.1020058441
  H        11.5575703947        3.6470504056       -1.7405193897
  C        15.1022571991        2.8091741804       -0.4264139559
  C        16.1230686844        3.3478854286        0.3841189488
  H        16.8829388157        3.9366483271       -0.1420389095
  H        15.0683708147        3.1837801248       -1.4276140446
  C        11.0678767771       -0.3855645415        3.5520835815
  C        12.1866587797       -1.2468921358        3.8845440469
  C        12.4448054173       -1.6666291110        5.2451953675
  C        11.5428391803       -1.2091873414        6.2284203001
  C        10.3567247702       -0.4946255494        5.8878431278
  C        10.1501979736       -0.0503700733        4.5991470148
  H         9.2006346347        0.4938538390        4.3182479153
  H         9.5670196213       -0.2382778007        6.6404919282
  H        11.6180020180       -1.3671960118        7.2970407291
  H        13.1893502388       -2.3956378224        5.3337734464
  H        12.8145631481       -1.6018492573        3.0407073000
  C         8.5575891149       -1.1793730212        1.9871459404
  C         7.6298885089       -1.8403787685        1.2328802072
  C         7.7361376124       -1.9106067647       -0.1862542924
  C         8.7530964213       -1.2516481771       -0.7826648298
  H         8.7256050683       -1.2319990701       -1.9073542353
  H         6.7944663569       -2.2269370703       -0.6513575004
  H         6.8917800142       -2.3903159903        1.7322521411
  H         8.5609962621       -1.2527732143        3.0473464723
  C        11.0074077082       -0.0796568367       -2.1951496220
  C        11.7826245037       -1.1280303080       -2.6262956402
  C        11.8884410774       -1.5518091217       -3.9473184539
  C        11.0977659019       -0.9386688115       -4.9347181589
  C        10.3252762371        0.2277441732       -4.5531307646
  C        10.2273273826        0.5715741249       -3.2011854857
  H         9.5792188409        1.3130097203       -2.9471926274
  H         9.7729151835        0.6956933379       -5.3430825705
  H        11.1784355245       -1.2661144945       -5.9720094936
  H        12.4943592917       -2.4234300360       -4.1764576267
  H        12.4981865036       -1.5758873486       -1.9418693612
  C         8.2052684461        8.1581549468        1.5883532919
  C         7.1878652980        8.9570294345        2.2070150090
  C         6.0785178414        9.3866227261        1.4671485288
  C         4.8881987376       10.0294400852        2.0522276435
  C         3.8657694710       10.4879013881        1.2742672163
  C         7.2302084929        9.3790724212        3.6315482124
  C         8.1393411562       10.4117623689        4.0332634878
  C         8.2846032077       10.6764346124        5.3486055749
  C         7.4267908393       10.1052043713        6.3629374665
  C         6.4970908835        9.1482279041        5.9607272215
  C         6.4013486592        8.7971206403        4.6269264894
  H         4.7801036518       10.0941280192        3.0996629239
  H         3.0580923571       10.9606987056        1.8885985909
  H         8.7100367614       10.8871539713        3.2648774515
  H         9.0370930000       11.3641055547        5.7053809093
  H         7.5333823906       10.3796066800        7.3868694311
  H         5.7606339081        8.8285341094        6.6772255878
  H         5.7399399281        7.9969569450        4.3078690665
  C         8.2381650064        8.0495584611        0.0837389433
  C         9.3820393953        7.4531606271       -0.5561703602
  C        10.4380647361        6.9270189819        0.1967763106
  C        10.4157933332        6.9063680697        1.6495447995
  C         9.2394490560        7.4986881362        2.2861022844
  C         6.1131816748        9.2812216372       -0.0103639262
  C         7.2144019307        8.7089904624       -0.7085377481
  C         7.3925300772        9.1135877373       -2.1987631674
  C         8.0923209744       10.2612473821       -2.4979627101
  C         8.1028126334       10.8317130154       -3.7814638426
  C         7.3557082706       10.2267731288       -4.7919083401
  C         6.6584796966        9.0260854053       -4.5181717181
  C         6.6732132761        8.4839764501       -3.2094213955
  H         6.1960800055        7.4862358948       -3.0656707079
  H         6.0417560272        8.5763140162       -5.2713776116
  H         7.2771349323       10.6542998178       -5.8358416792
  H         8.8485452905       11.5853427770       -4.0086827362
  H         8.7108505495       10.7698059404       -1.7880357227
  C         5.0141857396        9.7963653211       -0.7547286916
  C         3.8800874587       10.3176659311       -0.1463336442
  H         2.9625230195       10.5437178349       -0.6745916842
  H         4.9522683437        9.7660297403       -1.8345338198
  C         9.1604863263        7.2585941260        3.7496777094
  C         8.2803069973        6.3122276366        4.3313482781
  C         8.3292204652        6.0292499793        5.6509967229
  C         9.2342762161        6.7221298628        6.5021751964
  C        10.2144787495        7.5642708954        5.9650113425
  C        10.1778040461        7.8460713557        4.5772637231
  H        10.8841011262        8.5589675211        4.1939167543
  H        11.0780069806        7.9588066500        6.4787377519
  H         9.3832693754        6.4501616041        7.5544801796
  H         7.5482862506        5.3598427091        6.0479126125
  H         7.4858517139        5.9492512545        3.6771945622
  C        11.5279437622        6.2868072059        2.3245337379
  C        12.5113613018        5.6019841956        1.6557934484
  C        12.5035418348        5.5418590787        0.2408073931
  C        11.5244111730        6.1452834076       -0.4740686985
  H        11.5986981441        6.1791367778       -1.5639863816
  H        13.3373664953        5.0845052831       -0.3001565992
  H        13.3031828685        5.0759342534        2.1621174653
  H        11.5916172411        6.3447993912        3.3898022301
  C         9.3438403351        7.0723137510       -2.0072804135
  C         8.4973201537        6.0199655365       -2.4501383511
  C         8.5622345814        5.5643788967       -3.7646761827
  C         9.5194568093        6.0916386968       -4.6550600075
  C        10.3254539565        7.1407079004       -4.2219169968
  C        10.2663510243        7.5991066079       -2.8859149526
  H        10.8023669131        8.4677623140       -2.5543026907
  H        11.0468454140        7.6013632068       -4.8798877702
  H         9.6092066635        5.8371659529       -5.7218689560
  H         7.7711714890        4.8059433220       -3.9531043813
  H         7.8212443755        5.5499818402       -1.6710634805
