140

  C         5.5818203239       -0.3259301155       16.3358976261
  C         6.6595937964        0.4025785442       16.9656244059
  C         7.7608119274        0.8981051517       16.2278328985
  C         8.8796119999        1.5930922323       16.8642525975
  C         9.9064416992        2.2589092326       16.2102448637
  C         6.6404480667        0.8703314297       18.4259629727
  C         5.9355690954        2.0716933828       18.7432218408
  C         5.9987638911        2.6373598897       20.0532399823
  C         6.7762089763        1.9878149437       21.0000190534
  C         7.3877177527        0.7457634642       20.6924441436
  C         7.4222814556        0.2463654771       19.4124662807
  H         8.9849336381        1.3880923833       17.9311853829
  H        10.7557091449        2.5161063145       16.8607633163
  H         5.2298029055        2.4533001587       18.0478701160
  H         5.6036634628        3.6787692538       20.2329775564
  H         6.6916768777        2.3484952371       22.0605432052
  H         8.0311235408        0.3178259001       21.4050061035
  H         7.9862430538       -0.6634351591       19.1794828752
  C         5.6246918842       -0.4017592919       14.8571056421
  C         4.5459833856       -1.0039544836       14.2161340309
  C         3.4688613173       -1.5799369925       14.9076000673
  C         3.4912361065       -1.5286935477       16.3516322483
  C         4.4971294551       -0.8645300804       17.0444064947
  C         7.8108722268        0.8153134432       14.7907701170
  C         6.7453264454        0.1826064689       14.1408904478
  C         6.7002456299        0.4215654449       12.6418416095
  C         5.8157123814        1.5155161035       12.3039315532
  C         5.8739228388        2.0769576897       11.0671222029
  C         6.6730315754        1.5429208090       10.0702068109
  C         7.5835972708        0.5333149989       10.4441151330
  C         7.5934171336       -0.0900634383       11.6925465677
  H         8.2111513363       -0.9581463758       11.9446612449
  H         8.3038529973        0.1733887460        9.6561265207
  H         6.8405460013        1.9545134250        9.0695547371
  H         5.2063263242        2.9405000871       10.8879271729
  H         5.1523518382        1.8302577938       13.0993979290
  C         8.8607257691        1.6021521147       14.0808745443
  C         9.8265727580        2.3239975625       14.7450313793
  H        10.5656875900        2.8563684343       14.1175017484
  H         8.8265966006        1.6241400737       12.9906354484
  C         4.6420872120       -1.1499652107       18.5194908667
  C         5.4003920334       -2.3085686380       18.9669190454
  C         5.5200118297       -2.6483386505       20.2890013996
  C         4.6522666515       -2.0322909807       21.2204933203
  C         3.8544457006       -1.0017020305       20.8379667257
  C         3.9092473668       -0.4685406487       19.4851218566
  H         3.4123338830        0.4910642107       19.2543912031
  H         3.1181830065       -0.5648268556       21.5583087751
  H         4.5851910306       -2.4054380079       22.2203299532
  H         6.2010258030       -3.4867619803       20.5723724728
  H         5.8880170121       -2.9666877300       18.1663079207
  C         2.4228790661       -2.2369546842       17.1336817829
  C         1.5415685175       -3.0834539952       16.5154790097
  C         1.6183851656       -3.2761506872       15.1239232055
  C         2.5125828970       -2.5729525823       14.3353425367
  H         2.6053847962       -2.7342371547       13.2633000071
  H         0.9987732677       -4.0413065649       14.5797123521
  H         0.8936958202       -3.6493871614       17.1558348781
  H         2.4270053784       -2.2249499201       18.1951249873
  C         4.7063474404       -1.3746003757       12.7836447506
  C         5.6450313120       -2.4143295398       12.5103109773
  C         5.6623983061       -2.9214377009       11.2476708065
  C         5.0171332910       -2.3653209044       10.1652705453
  C         4.0884920453       -1.2552549817       10.4319384622
  C         3.9137292445       -0.8281075905       11.8001111537
  H         3.1488545556       -0.1262025938       11.9885438698
  H         3.5910456861       -0.9451658012        9.5404248321
  H         5.2728910246       -2.8771682900        9.2140427179
  H         6.2676040148       -3.8132033411       11.1058037503
  H         6.0118960600       -2.8933166425       13.4169670628
  C         2.2739073642        6.7843044745       16.0970865232
  C         1.2568972232        7.5914152478       16.7508213732
  C         0.0730175069        7.9452213919       16.0513052042
  C        -0.9441697468        8.6774258362       16.7188013495
  C        -2.0385218716        9.1815419916       16.0676713949
  C         1.2603305836        7.8738604255       18.2864659020
  C         2.1453447125        8.9019483089       18.7142989058
  C         2.0761119176        9.3173464667       20.0765794497
  C         1.2934190854        8.5815883547       20.9455662133
  C         0.4629414560        7.5485450737       20.4752176116
  C         0.4567410262        7.1705156162       19.1127096440
  H        -0.9334406430        8.7995272357       17.7865118833
  H        -2.8253847126        9.7101943548       16.6240880538
  H         2.7358966487        9.5045679521       18.0254224798
  H         2.8492519922        9.9615897183       20.4455406109
  H         1.2354862679        8.7289405367       21.9959183529
  H        -0.0764520029        6.9887990294       21.2289345830
  H        -0.2110868604        6.4125373387       18.7082672639
  C         2.2259755131        6.7077092638       14.6360261618
  C         3.3081667193        6.0257660688       13.9343149965
  C         4.3603506522        5.4170989003       14.6127076254
  C         4.3750154559        5.3739380895       16.1108156586
  C         3.2760584827        5.9785983417       16.8064909271
  C        -0.0584041728        7.7708038838       14.6486705929
  C         1.0703774757        7.3073352078       13.9661963799
  C         1.1305675774        7.6981387132       12.4741525346
  C         1.6334016328        8.9881194309       12.0761664537
  C         1.4201459850        9.3837944817       10.7795364456
  C         0.9796703838        8.4597006078        9.8276510928
  C         0.3957131761        7.2415165078       10.2268267894
  C         0.4521070935        6.8870747580       11.5696032299
  H        -0.0323273963        5.9578816265       11.8986025158
  H        -0.0267141366        6.6491093434        9.4612070401
  H         1.0488962292        8.6976763141        8.7453485160
  H         1.8605367983       10.3528379104       10.4340388866
  H         2.1614672590        9.5779616378       12.8098835285
  C        -1.2246755913        8.3510242700       13.9762233520
  C        -2.2166359399        9.0684580813       14.6578088748
  H        -3.0681517090        9.5029601765       14.1851990303
  H        -1.1440683984        8.3896113499       12.9007529940
  C         3.1453299140        5.4857999310       18.2252643844
  C         2.4732609923        4.2315918965       18.4468594959
  C         2.3363018962        3.6585312916       19.7288486896
  C         3.1064175319        4.1695722461       20.7812177130
  C         3.7732352179        5.4101173595       20.5187793803
  C         3.8868323270        6.0024756692       19.2847503848
  H         4.4956323904        6.9154085407       19.1873954089
  H         4.4281715317        5.8097863655       21.2967872957
  H         3.2900303038        3.6679918382       21.7823020086
  H         1.7746466438        2.7718020035       19.9082865896
  H         1.8854196325        3.8045558775       17.6548226277
  C         5.4436984048        4.6958852438       16.8038387090
  C         6.4996379787        4.2096894904       16.1237089913
  C         6.4334312128        4.1364895319       14.6813013602
  C         5.4488131917        4.7165702554       13.9835913526
  H         5.4304014580        4.6527218376       12.9272107646
  H         7.1612982662        3.4862452892       14.2194809105
  H         7.3741158781        3.8145842145       16.6379580438
  H         5.5169871546        4.8578677602       17.9049850912
  C         3.1817782846        5.5674680551       12.4739825911
  C         2.5797827036        4.2982845564       12.4101865482
  C         2.4315078690        3.7200349344       11.1035793528
  C         3.0037379694        4.2899928524        9.9866812382
  C         3.7259285996        5.5082479692       10.1031082150
  C         3.7834663117        6.1898115683       11.3001090450
  H         4.3640408832        7.0948915724       11.4437652615
  H         4.2829477038        5.8489965820        9.2428952532
  H         3.0469884557        3.7349212166        9.0317335518
  H         2.0030980275        2.7308553479       11.0788212530
  H         2.0780003775        3.9441891145       13.3049660606
