140

  C        15.8393641712       -1.4736138723        0.4196362121
  C        16.7353031163       -0.6302077834        1.1603779459
  C        17.7738525103        0.0660352521        0.5197307562
  C        18.8430012598        0.7242712259        1.2241839567
  C        19.9936018226        1.1695071406        0.6272636068
  C        16.7949333122       -0.3209682230        2.6294755073
  C        16.0045724713        0.7780956388        3.1133632218
  C        15.9155065317        1.1132082734        4.4617460423
  C        16.7984073770        0.5167448951        5.3878487021
  C        17.6744295318       -0.4934187763        4.9267031801
  C        17.5560238516       -0.9573244438        3.5919915692
  H        18.8650239407        0.7299461487        2.3058537288
  H        20.7371232126        1.7046050913        1.2389546241
  H        15.4035702302        1.3154822043        2.3971448250
  H        15.2031934567        1.8238924270        4.8563351709
  H        16.7625830624        0.8296949899        6.3805421768
  H        18.4141372191       -0.8926491534        5.6144416080
  H        17.9910146952       -1.8964775923        3.2092220657
  C        15.8332277790       -1.3973390460       -1.0802598853
  C        14.8294308655       -2.0592653405       -1.8388276838
  C        13.8344030456       -2.7148623524       -1.1032749211
  C        13.6366167792       -2.5486515361        0.3229174276
  C        14.7284020733       -2.0325274672        1.1142905455
  C        17.8199876681        0.0758094620       -1.0146747914
  C        16.7564483644       -0.5468971634       -1.7445474850
  C        16.6426143010       -0.2173035385       -3.2284853623
  C        15.7839092225        0.7937170633       -3.6596791227
  C        15.5700483205        1.0557066112       -5.0097790518
  C        16.2543902688        0.3948627085       -5.9977975532
  C        17.3163355711       -0.5153687307       -5.6418127800
  C        17.4951846553       -0.7838220983       -4.2742540803
  H        18.2157518519       -1.4975100425       -3.9593631838
  H        17.8735130960       -1.0072835139       -6.4234184058
  H        15.9937580187        0.7036474329       -7.0430136082
  H        14.7836009518        1.7578748833       -5.3071715262
  H        15.1535838006        1.3458432502       -2.9555885238
  C        18.9952126885        0.6837807215       -1.5816998940
  C        20.0419861012        1.1838414736       -0.7759405951
  H        20.8905000723        1.5834700592       -1.2886658908
  H        19.1659578389        0.7687851958       -2.7365454806
  C        14.8206879936       -2.2966615347        2.5278776757
  C        15.5548629256       -3.3577878372        2.9531498300
  C        15.6277919834       -3.6778360240        4.3030261267
  C        14.8685075198       -3.0236422915        5.2209519785
  C        13.9317398880       -2.0583481617        4.8056795294
  C        13.9242796311       -1.6762322704        3.4628460877
  H        13.2021099584       -0.9729149743        3.1292460331
  H        13.2380736786       -1.5791091266        5.5476743856
  H        14.9931552056       -3.2483229500        6.3205591782
  H        16.2261023079       -4.5186915431        4.5994285975
  H        16.3485213579       -3.8163071297        2.3089699604
  C        12.4112360437       -2.9556161915        0.8950281130
  C        11.4055626611       -3.5571044316        0.1846353626
  C        11.6158448929       -3.9134329876       -1.1429533908
  C        12.8222020011       -3.5348736847       -1.7643612754
  H        12.8826422316       -3.8120724699       -2.7908839952
  H        10.9695161208       -4.5296651473       -1.7341092989
  H        10.4646074223       -3.7976759233        0.6476097296
  H        12.2257925655       -2.7538085191        1.9116914900
  C        14.9842067508       -2.3706446090       -3.3059239630
  C        15.9774854967       -3.3296867125       -3.6709404027
  C        15.9291377258       -3.9238624246       -4.9048774848
  C        14.9314497180       -3.5215138024       -5.9088471910
  C        14.0644615087       -2.5043511073       -5.5214624908
  C        14.0346410778       -2.0030363689       -4.2558960208
  H        13.3577148594       -1.1923102203       -4.0765509115
  H        13.3433865387       -2.1632089555       -6.2951161615
  H        14.8906439243       -3.9249510618       -6.9134966390
  H        16.5509927336       -4.7765101344       -5.1108654084
  H        16.7473732761       -3.6082900395       -2.8900551544
  C        11.9987271427        6.0102797021        0.3866329243
  C        10.9826131047        6.7749906734        1.0207426929
  C         9.8037231245        7.2302658017        0.3492066605
  C         8.7548396935        7.9413815819        1.0993973941
  C         7.6433763776        8.3730529819        0.4469577491
  C        11.1680734206        7.2846643520        2.4250223824
  C        11.8895111949        8.5055729121        2.5361057863
  C        12.2742354671        9.1143132739        3.7572458590
  C        11.6782034557        8.4322324847        4.8761962461
  C        10.8244365228        7.3425812522        4.7802476148
  C        10.7030137862        6.6372993219        3.6128655996
  H         8.9501792215        8.1311952243        2.1423160018
  H         6.9034057916        9.0634828477        0.8884077619
  H        12.2320765885        8.9810886363        1.5622720892
  H        12.8656430759       10.0185108591        3.9486985476
  H        11.9698153600        8.7774742781        5.8946966843
  H        10.3733274223        6.8619823492        5.6475398667
  H        10.3078143131        5.6632807888        3.5137924470
  C        11.8370837042        5.8939445676       -1.0584977942
  C        12.8932327727        5.1711911779       -1.7253064204
  C        13.9845343094        4.6464434436       -1.1279503826
  C        14.0581450366        4.7147797428        0.3458214331
  C        13.0684409058        5.3582741095        1.0911346070
  C         9.6717873011        7.0947190257       -1.0925462234
  C        10.7494281950        6.5225339311       -1.7742680538
  C        10.7646860857        6.8297364274       -3.2844044803
  C        11.5345174851        7.9806754052       -3.6815765696
  C        11.5266867081        8.4550732756       -4.9629941361
  C        10.8905800318        7.7211047083       -6.0019455129
  C        10.0685547116        6.6375009158       -5.6465857084
  C        10.0902063217        6.1604877399       -4.3317377155
  H         9.5310290108        5.1952395021       -4.0855533637
  H         9.5990292238        6.1192205253       -6.4441463470
  H        11.0331398468        8.0393138135       -7.0814926688
  H        12.1237511156        9.3379296134       -5.1552778421
  H        11.9427999578        8.5070771246       -2.8521900450
  C         8.4971492960        7.6305277896       -1.7067572001
  C         7.5594593885        8.3017406839       -0.9572770130
  H         6.6493147627        8.6182898225       -1.5088835338
  H         8.3270277159        7.7611283923       -2.7864689122
  C        13.1729739058        5.1100619880        2.5825803595
  C        12.8206391309        3.8243169440        3.1125570871
  C        12.9995310912        3.4453742468        4.4749803997
  C        13.7139475664        4.3362726190        5.2519755407
  C        14.0956645483        5.5793195530        4.7501653365
  C        13.9173223269        5.9716413320        3.4111992843
  H        14.3132886651        6.8983604302        3.0122490594
  H        14.5639293537        6.3219901120        5.4268302240
  H        13.9634946355        4.0405636495        6.3826145751
  H        12.7861948319        2.4129901823        4.7097426983
  H        12.3680392967        3.0712321959        2.4315918400
  C        15.1746100130        4.1258216729        0.9275393097
  C        16.1714232569        3.4932011048        0.2013211998
  C        16.1025788174        3.4243990252       -1.2155990751
  C        15.0236961737        4.0256863707       -1.8659416282
  H        14.8216828783        3.8227393893       -2.8747781070
  H        16.9035866974        2.9371323167       -1.7462131719
  H        17.0425911755        3.0226783135        0.6033451318
  H        15.3360744655        4.1347654129        2.0256167504
  C        12.8887186835        4.8042672645       -3.1616098751
  C        12.3446250680        3.5334886895       -3.4261254904
  C        12.4422634523        2.9450340621       -4.6923380745
  C        13.1836770555        3.5455119041       -5.7010276018
  C        13.6539596018        4.8609198617       -5.4302888325
  C        13.4878694756        5.5062106899       -4.1751571666
  H        13.8881980820        6.4962317802       -4.0031467457
  H        14.1403979584        5.3774051852       -6.1827860566
  H        13.4887767484        3.0648422174       -6.5913689822
  H        12.0466458963        1.9360287397       -4.9457644770
  H        11.7619861930        3.0224165639       -2.6729714074
