140

  C         3.8423371555       -0.3977322764       13.9322405679
  C         4.8698507344        0.2434506884       14.6508656810
  C         6.0333852975        0.6658345567       13.9727323017
  C         7.1682279071        1.0785802885       14.6785068095
  C         8.2744366123        1.6921346579       14.0348132956
  C         4.7897791469        0.4617262839       16.1536947257
  C         3.9975891295        1.5319631906       16.6198522647
  C         3.8436595452        1.9406028656       17.9092722857
  C         4.5051019940        1.2002147683       18.9215374102
  C         5.3799908882        0.1791313948       18.5418564672
  C         5.5380811265       -0.2227122177       17.1876968205
  H         7.1284614629        1.0141182698       15.7712924006
  H         9.0211242280        2.0273304723       14.6881661293
  H         3.4633090675        2.0928396944       15.8009875132
  H         3.1468351156        2.7646065793       18.1546156824
  H         4.4293444889        1.4841958630       19.9708438393
  H         5.8968829553       -0.3405965982       19.2897372777
  H         6.2579328882       -1.0382484631       16.9629791797
  C         3.9143242018       -0.3985023192       12.4195756228
  C         2.9880529368       -1.2811360977       11.7231757686
  C         1.9433780618       -1.9310939292       12.4033030227
  C         1.8087844575       -1.8825272086       13.8275973072
  C         2.8103195113       -1.1358388272       14.5621696503
  C         6.0788241597        0.8195914525       12.5696259418
  C         5.0009732678        0.2926286998       11.7935940957
  C         5.1025622227        0.4976615916       10.3310859109
  C         4.4100969810        1.5984712991        9.7736066428
  C         4.6550573441        2.1245966392        8.4845792514
  C         5.5617114000        1.4483413761        7.6698973895
  C         6.1328972387        0.2655079944        8.1509478108
  C         5.9727704005       -0.2134469024        9.4642392216
  H         6.6136803344       -1.0130598334        9.7877017655
  H         6.7845288317       -0.2934326934        7.4989104085
  H         5.6898413916        1.8713431061        6.6636118890
  H         4.2005499943        3.0381039453        8.0777822382
  H         3.6265231521        2.0996216554       10.4424685878
  C         7.1592348800        1.4096448437       11.9362802544
  C         8.2233355130        1.9503201575       12.6148845657
  H         8.9902739317        2.5134045014       12.0974141527
  H         7.0659322779        1.4092638498       10.8383507869
  C         2.8435110950       -1.5225763217       15.9937690266
  C         3.6506935111       -2.5673198009       16.4572453344
  C         3.6891279586       -3.0341761166       17.7868837275
  C         2.8838859325       -2.4137300355       18.7458296229
  C         2.0876851152       -1.3196662815       18.3246516424
  C         2.0643308175       -0.8283351220       17.0109013544
  H         1.4014367892        0.0343750168       16.6897452359
  H         1.4375259623       -0.8115237540       19.0931470445
  H         2.7942319651       -2.8343931378       19.7527851464
  H         4.4117585627       -3.7558841014       18.0784119455
  H         4.3836530488       -3.0983432579       15.8097099221
  C         0.7389905657       -2.5272661664       14.4820405910
  C        -0.1468017424       -3.2058087962       13.7483218484
  C        -0.0579417253       -3.3340371788       12.3327385894
  C         0.9702780935       -2.6479603415       11.6875930604
  H         0.9842673687       -2.5905268062       10.5945414610
  H        -0.8465670382       -3.8413447636       11.8220763405
  H        -0.9455076583       -3.8472801529       14.2564745952
  H         0.6528576327       -2.5530333645       15.5998024587
  C         3.2465266690       -1.7269094305       10.2848828029
  C         3.8163497073       -2.9628786627        9.8622579908
  C         3.5975399400       -3.4941897708        8.5251542459
  C         2.8106992855       -2.7765280863        7.6167561686
  C         2.2088600723       -1.5465458936        8.0473785694
  C         2.4432237164       -1.0873740980        9.3753695956
  H         1.8326247933       -0.2625220822        9.7074930965
  H         1.4801748469       -1.0770474025        7.3877756614
  H         2.6795384399       -3.1201337794        6.6153268743
  H         4.1324601093       -4.3922490924        8.1850933339
  H         4.4174463040       -3.5148254619       10.5557769288
  C         0.5275476686        6.7469306362       14.1376666003
  C        -0.5431663026        7.3810024197       14.8066557401
  C        -1.6514053205        7.9287604588       14.1332883328
  C        -2.7114710433        8.5944807617       14.8171964509
  C        -3.7901026257        9.1456127916       14.2179896649
  C        -0.4636185047        7.7521437804       16.2873149121
  C         0.3317653683        8.8700450811       16.5588620630
  C         0.5758169763        9.3684742744       17.8547034353
  C        -0.0265205115        8.6665685937       18.9275991182
  C        -0.8122033165        7.4836864504       18.6715666632
  C        -1.0603276309        7.0548067366       17.3742846483
  H        -2.6239845153        8.7041662082       15.9282729547
  H        -4.6631314413        9.5929083729       14.6345441610
  H         0.7870100625        9.3089865779       15.6931685475
  H         1.1944383245       10.2380817540       17.9813511146
  H         0.2701764750        8.8714994031       19.9274535760
  H        -1.3187898548        6.9532430142       19.4402543189
  H        -1.8019706226        6.2483004141       17.0853894638
  C         0.4752276284        6.6393016351       12.6395044619
  C         1.5573694896        6.0333819778       11.9407651651
  C         2.6393875803        5.4942564243       12.7162762259
  C         2.5705601639        5.4626117867       14.1637816887
  C         1.5222356968        6.0543096664       14.9138988808
  C        -1.7111329757        7.9020914896       12.6866196657
  C        -0.6743429169        7.2621631121       11.9829944691
  C        -0.8827888162        7.3353840368       10.4813468200
  C        -0.1292503141        8.2977450023        9.8020342381
  C        -0.2413364226        8.5018850826        8.4182995221
  C        -1.2005109487        7.7636509322        7.7283532294
  C        -2.0023920285        6.8408136506        8.3602710982
  C        -1.8334291607        6.6089579403        9.7507111196
  H        -2.5237890563        5.9329572776       10.3088706595
  H        -2.7397510551        6.3023279347        7.7957625762
  H        -1.4182387330        7.9514139126        6.6504909625
  H         0.3505874216        9.2657597682        7.8902958359
  H         0.5690308173        8.8808723672       10.3826219169
  C        -2.8156344111        8.5700248703       12.0419132254
  C        -3.8176538543        9.1801021036       12.7871792472
  H        -4.6001128221        9.6824981057       12.2409861160
  H        -2.9272882863        8.5063352222       10.9715321179
  C         1.4111636498        5.5595088259       16.3272708878
  C         0.6427083878        4.4630138957       16.7277249395
  C         0.6080994884        4.0488359635       18.0621655627
  C         1.3692875054        4.7396414559       19.0443673723
  C         2.1130473957        5.8451555575       18.6507114073
  C         2.1269977494        6.2527890812       17.3213901080
  H         2.7486568988        7.0557892502       16.8899933181
  H         2.7774010887        6.3319807183       19.3449327256
  H         1.2606394263        4.3969512711       20.0659431245
  H         0.0699632281        3.1510974960       18.2093488486
  H         0.1296349926        3.8829896045       16.0050403688
  C         3.5428234473        4.6525316610       14.8636880858
  C         4.6243920293        4.0629720030       14.2548491126
  C         4.6754240183        4.1115040555       12.8381539530
  C         3.7428677741        4.7856193848       12.0650027750
  H         3.8055176409        4.8344923896       11.0004934131
  H         5.4083222499        3.5548461664       12.2728829467
  H         5.2944416596        3.4465875490       14.8051346337
  H         3.5361857897        4.6244098771       15.9497203173
  C         1.5293806993        5.6020570719       10.4564111422
  C         0.7490861186        4.4823891264       10.1112322651
  C         0.7243664189        3.9887147334        8.7651742686
  C         1.5567479533        4.6472940940        7.7790986026
  C         2.3814947686        5.7754008228        8.0895685592
  C         2.2998034843        6.2419494789        9.4570833354
  H         2.9532743149        7.0377691993        9.8059834221
  H         2.9069458644        6.2244941809        7.2703117838
  H         1.5304914973        4.1735250598        6.8115398229
  H         0.2334916223        3.1034114721        8.4939233386
  H         0.2103751138        3.9833860031       10.9236795602
