140

  C        15.4039370199       -0.9719986190        0.3172207609
  C        16.5595449694       -0.3594528622        0.9229797557
  C        17.6226290260        0.2075326755        0.1450748610
  C        18.7132807605        0.8973395845        0.7466741494
  C        19.6011442733        1.6266931408        0.0469517375
  C        16.6077055155        0.1758391223        2.3195889909
  C        15.6994042238        1.2595542773        2.5684410961
  C        15.5042032499        1.7938959443        3.8734573584
  C        16.3529871316        1.3466821332        4.9357423251
  C        17.2628052998        0.3306066639        4.7131495207
  C        17.3797549383       -0.2128041509        3.4322674539
  H        18.8908984056        0.8757066586        1.8001599382
  H        20.4877416204        2.0736214681        0.5144029696
  H        15.0364863142        1.7098872566        1.8191204823
  H        14.6891669939        2.4823198100        4.0826281732
  H        16.2337214551        1.6634189764        5.9706182535
  H        17.9363917534       -0.0135613736        5.5032492376
  H        18.0226380678       -1.1375857166        3.2625683505
  C        15.4062396653       -1.0382100994       -1.1689222954
  C        14.3750837006       -1.8575079954       -1.7296764321
  C        13.2274292978       -2.3390958676       -0.9777585626
  C        13.3140238576       -2.2235827567        0.4360802740
  C        14.4357875640       -1.6262907360        1.0885416799
  C        17.4983361141        0.3006706794       -1.2746229198
  C        16.3627774554       -0.2120983545       -1.8857409788
  C        16.0350670705        0.2222266293       -3.2696717294
  C        15.0494532222        1.2131209648       -3.3577018996
  C        14.7152704367        1.8254121899       -4.5918524336
  C        15.4218325356        1.5477216036       -5.7526890900
  C        16.4163579937        0.5788557617       -5.6718608136
  C        16.6797848407       -0.0812076156       -4.4688465152
  H        17.5321307949       -0.8232604531       -4.3253404356
  H        17.0574225192        0.2320101053       -6.5329453529
  H        15.2332493263        2.1037784281       -6.6737742601
  H        13.8797051973        2.5440291038       -4.6021193671
  H        14.5505375631        1.4422068899       -2.4089187799
  C        18.3386923977        1.1945778604       -1.9831683349
  C        19.4172177962        1.7795294405       -1.3578704877
  H        20.1823540043        2.4379265736       -1.8393975119
  H        18.2664138310        1.4321745570       -3.0196548468
  C        14.5653104958       -1.8402161078        2.5393820707
  C        15.4510202379       -2.8075439151        2.9913622908
  C        15.4752073634       -3.2564159680        4.3853040931
  C        14.4992798493       -2.7514673700        5.2643906705
  C        13.5933164107       -1.7810666544        4.7700293766
  C        13.6320620250       -1.2251946127        3.4709840162
  H        12.8606074253       -0.4466102688        3.1829350722
  H        13.0662581740       -1.2192727285        5.5133430926
  H        14.4560032847       -3.0964298731        6.2350307579
  H        16.1288600736       -4.1190588207        4.6473243392
  H        16.1153714221       -3.2259061649        2.2307436377
  C        12.1739987200       -2.7196675555        1.1698721196
  C        11.0632103913       -3.2734286754        0.5193330752
  C        11.0937346750       -3.4873811083       -0.8577835411
  C        12.1610923689       -3.0003853386       -1.5942248555
  H        12.1490546517       -3.2277318730       -2.6716035107
  H        10.4256450556       -4.0758011216       -1.3995389578
  H        10.2007093891       -3.6924001560        1.0577143472
  H        12.1477686270       -2.4777646637        2.1770882160
  C        14.3706750955       -2.2562915557       -3.1027010672
  C        15.2458417977       -3.2581035304       -3.6505212484
  C        15.2324718902       -3.6081742152       -5.0457766630
  C        14.3388929010       -2.9445188660       -5.9093307372
  C        13.4097647551       -2.1308185131       -5.3019102836
  C        13.4227952114       -1.7066955141       -3.9522523797
  H        12.6542272044       -1.0092260514       -3.5329014384
  H        12.7784607389       -1.5124250104       -5.9878980795
  H        14.2158549017       -3.0728349054       -6.9597027295
  H        15.8859122500       -4.4027069245       -5.3980173199
  H        15.9799135593       -3.6759352956       -3.0360727294
  C        11.8733193398        6.3562026867        0.2967983834
  C        10.7502729416        7.0431839156        1.0138390097
  C         9.6817058058        7.6365349246        0.2866730038
  C         8.6259207535        8.3439714970        0.9589950600
  C         7.6763120103        9.0249342662        0.2954442302
  C        10.7775805669        7.3728553625        2.5236829009
  C        11.4878254659        8.4673581622        2.9075460917
  C        11.3567251669        9.0439766208        4.1602149118
  C        10.5624979814        8.4031496923        5.1755230082
  C         9.9343424753        7.1803504132        4.8314985863
  C         9.9658290526        6.7164457742        3.5024338408
  H         8.5616277145        8.2725267616        2.0390040737
  H         6.9569432647        9.6427223508        0.8030579307
  H        12.2492108394        8.9631254360        2.1901842468
  H        11.9760718101        9.8938483434        4.5120186119
  H        10.6823084081        8.6625648963        6.2305470240
  H         9.4672311645        6.6213995414        5.6165817822
  H         9.3887100937        5.8106062975        3.2686073925
  C        11.8975838128        6.4212971104       -1.2093009380
  C        12.9701995569        5.7930649678       -1.9450133954
  C        14.0530292796        5.2033133670       -1.2162528768
  C        14.0214142282        5.1288530868        0.3026552315
  C        12.9102328614        5.7404072135        1.0251100072
  C         9.7090414652        7.7315898118       -1.1199188641
  C        10.8505126344        7.1653797490       -1.8699320190
  C        10.9786149882        7.5860780094       -3.3014476328
  C        11.9840551567        8.3850061018       -3.7838833817
  C        11.9370736681        8.9046793152       -5.0421605648
  C        10.9259139968        8.5063376738       -5.9333044453
  C         9.9337017134        7.6069876776       -5.4990215439
  C        10.0157215141        7.1032325406       -4.2031152386
  H         9.2542693783        6.3988612064       -3.8346954275
  H         9.1280101701        7.4444890045       -6.1951335121
  H        10.8988816548        8.7672837821       -7.0716000009
  H        12.7401515495        9.4684378349       -5.3909606337
  H        12.8631466858        8.6874045643       -3.1878235160
  C         8.6818443937        8.4355693274       -1.7591193196
  C         7.7164283815        9.0859262720       -1.1406939686
  H         6.9393114538        9.6255446107       -1.6684221213
  H         8.7405201700        8.5079660885       -2.8192431500
  C        12.7921606923        5.3891242355        2.5135034662
  C        11.9810073374        4.3516304074        2.9464824648
  C        12.0794742430        3.8280577899        4.2909627714
  C        12.8007460278        4.5703304472        5.2490282731
  C        13.4255900686        5.7758840019        4.8094711051
  C        13.6033652971        6.0607494654        3.4840104974
  H        14.3562974011        6.7635167855        3.1074469890
  H        13.9029141674        6.3435002750        5.5746098702
  H        12.7701858601        4.2808699367        6.3247114852
  H        11.5755102542        2.9158080023        4.5943974490
  H        11.3375832238        3.7772169703        2.2963238323
  C        15.0650058153        4.3419318346        0.9249276960
  C        15.9621049195        3.6821326200        0.1906207515
  C        16.1087811836        3.8278586907       -1.2229190730
  C        15.1374684205        4.5691271715       -1.9080902324
  H        15.2348395406        4.6369273076       -2.9793235323
  H        16.8149075831        3.1984783881       -1.7980645592
  H        16.6084167296        2.9492579767        0.6592744494
  H        15.1636039155        4.3091517617        2.0106817893
  C        12.8095185244        5.3284407534       -3.3670510884
  C        11.7992635717        4.4095476948       -3.5018274282
  C        11.4709451845        3.8532661933       -4.7080059901
  C        12.1968306548        4.2852591306       -5.8397731948
  C        13.1016849190        5.3005610557       -5.7860365103
  C        13.5177135617        5.8082774992       -4.4932200362
  H        14.3136328138        6.3849951327       -4.4015872591
  H        13.7110607147        5.6911965888       -6.5987743505
  H        11.9903130604        3.8868389326       -6.8074142593
  H        10.6909815833        3.0834719507       -4.8317895702
  H        11.2993367546        4.0238525167       -2.6197251364
