140

  C         4.9557835848       -1.4656007706       13.9148350378
  C         6.0300238692       -0.8107643553       14.6568106663
  C         7.1760249599       -0.3166511280       13.9384156590
  C         8.3820682333        0.1240137176       14.6079047986
  C         9.4127905372        0.7352819076       13.9496606725
  C         5.9577593652       -0.6460263935       16.1236180027
  C         5.2224132164        0.4636934158       16.5461839903
  C         5.1825265513        0.8586563617       17.9150183421
  C         5.9337699212        0.2100325527       18.8608940104
  C         6.8391513214       -0.7445663525       18.4493769369
  C         6.7367549363       -1.2938401547       17.1091661214
  H         8.3807194807        0.0261158663       15.7073611831
  H        10.2251868335        1.0705230072       14.5959003267
  H         4.7679847713        1.0141809743       15.7868886392
  H         4.6949789800        1.7683295240       18.2355699081
  H         6.0165085466        0.6083154785       19.8862381767
  H         7.6569022989       -1.1190882720       19.1162201715
  H         7.3561779050       -2.2039126708       16.7743267829
  C         5.0282595860       -1.4640825453       12.4199099730
  C         3.9651018803       -2.0396126322       11.6828328558
  C         2.8456683269       -2.5865154561       12.3769495635
  C         2.8360717453       -2.6886558857       13.7943326759
  C         3.9267107878       -2.1779254341       14.5303185646
  C         7.1501312192       -0.2168699131       12.5170950208
  C         6.0769207194       -0.7839843953       11.7577017676
  C         5.9487123825       -0.3865131731       10.3163989771
  C         5.3206031984        0.8083513268       10.0739668438
  C         5.4198661196        1.3829398506        8.7987329604
  C         6.0523911016        0.7382726862        7.7520988249
  C         6.8154919793       -0.4228037929        8.0184026678
  C         6.7494182281       -0.9674754988        9.3198845447
  H         7.3649635530       -1.8494081348        9.5519702680
  H         7.3243070333       -0.9915354337        7.2818323753
  H         6.0333325111        1.1646210725        6.7621382731
  H         5.0340665973        2.3502050831        8.6188421960
  H         4.7658208036        1.3363017136       10.8622875100
  C         8.2224362781        0.5320219090       11.9020147107
  C         9.3208115768        0.9173490160       12.5815693565
  H        10.1243785524        1.3684472719       12.0094069680
  H         8.1630627380        0.7688715658       10.8308901600
  C         3.9885461909       -2.4619806846       16.0075992434
  C         4.7482664745       -3.5671279800       16.5059463507
  C         4.5642828539       -4.0945652384       17.7693404623
  C         3.6070076571       -3.5043147886       18.5728035681
  C         2.8506354742       -2.3918061323       18.1328792636
  C         3.0951601997       -1.8950875113       16.8536667035
  H         2.4846839951       -1.0883495248       16.3998382339
  H         1.8799395793       -2.1354847128       18.6859194522
  H         3.4140486960       -3.9176485876       19.5475761888
  H         5.1976583969       -4.8919840190       18.1127042893
  H         5.5300961322       -4.0151679476       15.8999184012
  C         1.7505961326       -3.4387042737       14.4250248559
  C         0.7055741531       -3.9604863291       13.6988265364
  C         0.7184048475       -3.8135719327       12.2326876702
  C         1.8636016003       -3.2976761082       11.6684302836
  H         1.8542388390       -3.2501754858       10.6076863164
  H        -0.1885638059       -4.1813123010       11.6052955283
  H        -0.1111516930       -4.4881566552       14.2154185096
  H         1.7978394345       -3.4577849847       15.4905153210
  C         4.0401132663       -2.1836767709       10.2259192852
  C         4.7488940382       -3.2875768876        9.6728765197
  C         4.7462353225       -3.5464644802        8.3095402212
  C         4.0720048932       -2.6621971169        7.3937946573
  C         3.2534850761       -1.6641231243        7.9811561477
  C         3.2944893872       -1.3692093537        9.3260327805
  H         2.7881251287       -0.4718228783        9.6854781536
  H         2.6371585772       -1.0136196166        7.3073605238
  H         4.1616799387       -2.9150653390        6.3545121707
  H         5.1590511121       -4.4598195680        7.9716594259
  H         5.2359450391       -4.0254043376       10.3458932108
  C         1.4921728888        5.6034587701       13.8456957132
  C         0.4924986247        6.3810583528       14.5026934266
  C        -0.5881441991        7.0479974706       13.7429571829
  C        -1.6367289993        7.7814254788       14.3827012144
  C        -2.7365043375        8.2933090418       13.6859134469
  C         0.6154654113        6.6915016860       16.0015597136
  C         1.5351030863        7.7000869234       16.4512399162
  C         1.3417040757        8.3103405468       17.7200811070
  C         0.2951100117        7.9213153688       18.5628301532
  C        -0.6287605972        6.9317473336       18.0983496499
  C        -0.4206030366        6.2986036003       16.8711708438
  H        -1.4802250126        7.9933429111       15.4322358910
  H        -3.4626490144        8.8724182137       14.2698519716
  H         2.2256069964        8.1689883310       15.7058325720
  H         1.9622922414        9.1346350137       18.0951049721
  H         0.1236160528        8.3483231258       19.5701297964
  H        -1.5163625662        6.7934970140       18.7072306282
  H        -1.0928957839        5.4969041633       16.5312565909
  C         1.4943606351        5.6974960554       12.3048414110
  C         2.5644152942        5.0924959768       11.5986888119
  C         3.7090312706        4.5328294865       12.3357630717
  C         3.6587232782        4.3596962314       13.8160659212
  C         2.4959418378        4.8885535645       14.4772820038
  C        -0.7209219575        6.8892739322       12.2928600342
  C         0.4158255472        6.3769823679       11.5986211214
  C         0.5751783090        6.9192158365       10.1327090030
  C         1.4430753524        8.0013922901       10.0219915231
  C         1.6297712333        8.6251358869        8.7769229121
  C         0.9758938079        8.1646780720        7.6441664272
  C         0.0622817928        7.1312317989        7.7845158293
  C        -0.1487926311        6.4604359226        8.9804024846
  H        -0.8119164568        5.6367189465        9.1150798630
  H        -0.4105476159        6.7697655499        6.9629596690
  H         1.1685227542        8.6299988886        6.6214974063
  H         2.3415487087        9.4274629032        8.7049365587
  H         2.0857172958        8.2498241144       10.8744758022
  C        -1.8410448192        7.4010350664       11.6333621215
  C        -2.8293940729        8.1456163303       12.2614796324
  H        -3.7559145149        8.4933677366       11.7638568178
  H        -1.8241347200        7.2213904130       10.5826276232
  C         2.4593824243        4.6115344683       15.9190462716
  C         1.6471432151        3.5708380037       16.5374805283
  C         1.8256815078        3.2103806954       17.8802109250
  C         2.7821552777        3.8019341746       18.6948255211
  C         3.5623181287        4.8419057016       18.1426681694
  C         3.4442482218        5.2167642585       16.7927276118
  H         3.9938170080        6.1503407319       16.4373277824
  H         4.1411969277        5.4565581319       18.8518854197
  H         3.0523306165        3.4401602963       19.7324314485
  H         1.0972256251        2.4970154800       18.1942096567
  H         0.9912518302        2.9950927378       15.8810726034
  C         4.6620312030        3.5109374371       14.4487027524
  C         5.7526066318        3.0127177654       13.7549551661
  C         5.8149657219        3.3251388099       12.3704615646
  C         4.9019306551        4.0429927304       11.6436646269
  H         5.0872203922        4.2906582314       10.6084683997
  H         6.6812207342        3.0713134615       11.8025389344
  H         6.3593416625        2.3054586824       14.3090312386
  H         4.5036188747        3.0711557079       15.4691974474
  C         2.6152579405        4.8385879605       10.1537169151
  C         1.9813940863        3.6953762230        9.6393281789
  C         2.0668503212        3.3492537744        8.2704127146
  C         2.7864439997        4.2482153346        7.3944056780
  C         3.3833489067        5.4149624367        7.8941446324
  C         3.3148857776        5.6994155671        9.2779688157
  H         3.7432058839        6.6020410752        9.6733793189
  H         3.8890141591        6.0687551836        7.1826377155
  H         2.7099156536        4.1803568805        6.3410705934
  H         1.4695450456        2.5277938002        7.8905507153
  H         1.2866528160        3.0698843276       10.2107768566
