140

  C        14.0627077211        0.2508374575        1.2018072430
  C        14.9889731687        1.0200194321        1.8955385053
  C        16.1227110616        1.4614309554        1.1874456575
  C        17.1777663595        2.1500074578        1.9036783051
  C        18.3673068298        2.4832576377        1.2302348184
  C        14.9257686320        1.4442693961        3.3617903193
  C        14.1987397917        2.6030495381        3.6741789082
  C        14.2638413533        3.1561740988        4.9652500598
  C        15.0759355406        2.4924301767        5.8996268730
  C        15.8020190914        1.3519005921        5.5672920714
  C        15.7321998919        0.8022587006        4.3024605985
  H        17.1110986659        2.2710707416        3.0133834207
  H        19.2481408492        3.0119985982        1.6422499265
  H        13.4994586740        3.0205816352        2.9102855851
  H        13.8188655974        4.0508923070        5.3141728589
  H        15.0692532890        2.7951657295        6.9801154138
  H        16.5252708257        0.9244160784        6.3019077787
  H        16.2000441565       -0.1699081469        4.1835381945
  C        14.1106511647        0.1364507451       -0.2963909511
  C        13.0456657883       -0.5288492131       -0.9736236985
  C        12.0271667304       -1.1650423227       -0.2716483378
  C        12.0432836370       -1.1668124699        1.1616391755
  C        13.0169690183       -0.4686049179        1.8418557907
  C        16.2402368423        1.1618664238       -0.2123985918
  C        15.1852667673        0.6934077139       -1.0226711973
  C        15.3281483795        1.0426325580       -2.5269448692
  C        14.5622211624        2.0586795444       -3.0523066023
  C        14.7822446715        2.4451835309       -4.4058755142
  C        15.6643139756        1.7590840743       -5.2144760970
  C        16.4512473063        0.6801027042       -4.6726632122
  C        16.2779080810        0.3569527716       -3.3551862601
  H        16.7921195003       -0.4659458335       -2.8609632618
  H        17.1458026633        0.1826828392       -5.3518890174
  H        15.8367642738        2.0249040071       -6.2392736308
  H        14.1558981499        3.2229173665       -4.8635942950
  H        13.8690773472        2.5670522859       -2.4203865087
  C        17.3755585585        1.7306062828       -0.8835856736
  C        18.3955822797        2.2802695223       -0.1732229012
  H        19.3372489446        2.6249277485       -0.6502184035
  H        17.3985775394        1.8079724889       -1.9746769669
  C        13.1198612988       -0.8434824974        3.2922818319
  C        13.9699533063       -1.9860002488        3.6807619223
  C        14.0411852843       -2.3086563548        5.0738775051
  C        13.3181351493       -1.5499095201        6.0909700888
  C        12.5785021060       -0.5287108220        5.6150853724
  C        12.4329282739       -0.1513129186        4.2815292557
  H        11.9384409411        0.7604604011        3.9683940577
  H        12.0443190533        0.1167020380        6.3022514733
  H        13.3941132831       -1.7612846131        7.2197734432
  H        14.5108622571       -3.1664304526        5.4966401334
  H        14.4441139327       -2.6345578838        2.9773549295
  C        10.9937269044       -1.9377965942        1.8159852632
  C         9.9492118824       -2.4898045573        1.1355910090
  C         9.9243968528       -2.5204461340       -0.2748573730
  C        10.8978603160       -1.8227295341       -0.9711711888
  H        10.8725908773       -1.7790383076       -2.0359965167
  H         9.0498454456       -2.9347318549       -0.8381196341
  H         9.3175606873       -3.1785300109        1.7310274697
  H        11.0549645761       -2.0576743030        2.8754539151
  C        13.1602055544       -0.9075012369       -2.4237881067
  C        13.7927617630       -2.1536708584       -2.7052061182
  C        13.7594117111       -2.6607063842       -3.9799892232
  C        13.0963950336       -2.0330742791       -4.9901103967
  C        12.4752759482       -0.8495778844       -4.7878340664
  C        12.4757992001       -0.2941270674       -3.4723148613
  H        11.8604653684        0.5746866687       -3.2791704892
  H        11.8371342001       -0.5014439218       -5.6009430789
  H        13.1405934059       -2.4662400923       -6.0092003947
  H        14.2680059794       -3.5493577159       -4.1385785992
  H        14.2624546805       -2.7496035944       -1.9026312729
  C        10.6470861937        7.2306557813        1.0833091817
  C         9.5864060989        7.8313564223        1.7781467406
  C         8.5128213707        8.5198421456        1.0985092540
  C         7.4971118665        9.2589230206        1.8161347861
  C         6.5861972356        9.9777306932        1.1578166612
  C         9.6529882806        8.1938903084        3.2328843347
  C        10.4182197727        9.3762062228        3.5595346967
  C        10.4246933012        9.8362500312        4.9441841255
  C         9.5243296849        9.2192919458        5.8409606743
  C         8.7874675816        8.0570113670        5.5185125616
  C         8.9570839146        7.5626048034        4.1779970208
  H         7.5571328051        9.3580537307        2.9087595609
  H         5.9099660617       10.6186300930        1.6703914592
  H        10.8376589031        9.8623051147        2.7182634134
  H        11.1027633420       10.6822600809        5.2110815649
  H         9.4006626914        9.4807615091        6.9244582351
  H         8.1340082183        7.4600818394        6.1528646608
  H         8.3760765650        6.6714233106        3.8194999397
  C        10.5840605513        7.2467077185       -0.3603715529
  C        11.6701180434        6.5866169985       -1.0954916735
  C        12.8616231522        6.0944378326       -0.4440516494
  C        12.9122625634        6.2079772720        0.9792314355
  C        11.7937096690        6.6611175570        1.6962935754
  C         8.4462015306        8.5093125436       -0.3343626974
  C         9.5045121379        7.8579979344       -1.0167408843
  C         9.6191647906        8.3666402059       -2.5397138128
  C        10.3561608452        9.5941422206       -2.8624707978
  C        10.4667512541       10.0551964561       -4.1918153833
  C         9.7339292469        9.4460868908       -5.2012104848
  C         9.0236560119        8.2579982224       -4.8220522713
  C         9.0212587105        7.6526171824       -3.5595817707
  H         8.5029347144        6.7221895372       -3.4233312661
  H         8.4102488429        7.8244978935       -5.6019655060
  H         9.8024591626        9.7019585154       -6.2442986784
  H        11.0599516100       10.9017724599       -4.3887743884
  H        10.8971489426       10.0791616404       -2.0616989632
  C         7.3598156418        9.2593526213       -0.9821566198
  C         6.4304370033        9.9594665136       -0.2830850664
  H         5.5385525779       10.4437189694       -0.6463654163
  H         7.3312383623        9.3223945930       -2.0585951188
  C        11.7286343457        6.2069568076        3.1880898778
  C        10.8424977157        5.1481150644        3.5359035123
  C        10.7721166759        4.6139313630        4.8712348189
  C        11.4837356232        5.2017445508        5.9165561173
  C        12.3980008407        6.2885868808        5.5938630303
  C        12.6021562492        6.6396398174        4.2209593633
  H        13.4415705361        7.2355386917        3.8977366513
  H        13.0333855148        6.7509093956        6.3410575949
  H        11.2611177974        4.9055491399        6.9086425317
  H        10.0326847907        3.8447900320        5.0556412161
  H        10.1961287634        4.7132672129        2.8153199740
  C        14.1485966423        5.9117753168        1.6062091610
  C        15.1973013058        5.3207342322        0.9399139678
  C        14.9166406594        4.8869784970       -0.3829399094
  C        13.8627515490        5.3226657440       -1.1264305730
  H        13.7187002188        5.1138817228       -2.2219038680
  H        15.6706316952        4.2118233566       -0.7622472693
  H        16.0872042217        5.0162524559        1.5055545499
  H        14.1923698141        6.2006193780        2.6557456323
  C        11.5966077020        6.2353481388       -2.5415604204
  C        10.7409683420        5.2113889684       -2.9214164758
  C        10.8163649543        4.6472890384       -4.2744421811
  C        11.7722633390        5.1666357031       -5.1813827652
  C        12.5906341468        6.2201041842       -4.7996104370
  C        12.4908845269        6.7632737821       -3.5252139779
  H        13.0635314412        7.6910715856       -3.2731828048
  H        13.2656139031        6.6245469240       -5.5569082022
  H        11.9149486754        4.7046431345       -6.2066682967
  H        10.0488689673        3.8756322474       -4.5269490634
  H         9.9803665339        4.8546539371       -2.2793876340
