140

  C        12.3197693892        1.0930886858        1.5546439534
  C        13.3581850502        1.8110524243        2.3046758437
  C        14.3472308539        2.3978607588        1.5142761869
  C        15.5102457620        3.0293241573        2.1427589315
  C        16.5496372669        3.5468481420        1.4781535704
  C        13.3401787896        2.1762899280        3.7610430127
  C        12.6055392588        3.1984332702        4.3403116952
  C        12.6695192636        3.6085222010        5.6871774922
  C        13.4665147273        2.8993883745        6.5320597974
  C        14.1728087996        1.7922012027        6.0022925386
  C        14.1007809847        1.4486970572        4.6755164044
  H        15.6474487627        2.9016498518        3.2595479002
  H        17.4738200482        3.9403406001        1.9381432404
  H        11.9790013520        3.7165832807        3.6549693086
  H        12.0413585165        4.4086165285        6.0430930925
  H        13.6840079226        3.2738831105        7.5222362461
  H        14.8482004545        1.3132922901        6.6754137050
  H        14.5742545935        0.4942618115        4.3969208884
  C        12.2453232893        1.1761217655        0.1146778721
  C        11.1304755398        0.5933423960       -0.5666874730
  C        10.0068490181        0.0429560871        0.0986663459
  C        10.1025756933       -0.1174064093        1.5625218033
  C        11.2638679540        0.3673968036        2.2085717203
  C        14.4427618938        2.3466048720        0.0702449976
  C        13.2905987785        1.9041833505       -0.6038234034
  C        13.2036844295        2.2616015242       -2.0882900714
  C        12.4566874632        3.4027823673       -2.4427838189
  C        12.4290955214        3.9448269167       -3.7546734138
  C        13.2401140377        3.3183890967       -4.6874962085
  C        13.9935771136        2.1863890304       -4.3554056801
  C        13.9529403158        1.6331926447       -3.0565046588
  H        14.4783529858        0.7001061850       -2.8213859560
  H        14.6710578231        1.6827712315       -5.1402481005
  H        13.2642929084        3.7165286125       -5.7207745788
  H        11.6989671253        4.6991126426       -4.0527768299
  H        11.8745646986        3.8840068090       -1.6288116111
  C        15.4978450717        3.0151774132       -0.6512789253
  C        16.5058626037        3.5437549448        0.0748312173
  H        17.2411329430        4.1237687040       -0.4815695394
  H        15.4130894023        3.0925421493       -1.7435484861
  C        11.3379466239        0.0215345672        3.6936912767
  C        12.0602686857       -1.1107756488        4.1277914087
  C        11.9792938223       -1.5427381870        5.4639381084
  C        11.2502807624       -0.7711572552        6.3984200707
  C        10.5121535145        0.3123005380        5.9906235477
  C        10.6327760967        0.7366524901        4.6887391139
  H        10.2401613129        1.7168696431        4.3772630933
  H         9.9275922751        0.8315491934        6.7109624368
  H        11.2287751542       -1.0428775900        7.4435072862
  H        12.5701102799       -2.3534191949        5.8767594033
  H        12.6087943561       -1.6867703080        3.3313462963
  C         8.9595661350       -0.6102304869        2.3113768054
  C         7.7851460963       -1.0039287043        1.6792607335
  C         7.7045602058       -0.7326239081        0.3066053857
  C         8.7560044059       -0.2475766560       -0.4970676304
  H         8.6139150397       -0.2432441496       -1.5333101676
  H         6.8851580132       -1.1659317318       -0.2547124217
  H         6.9495314683       -1.3816166948        2.3158566196
  H         9.0792803139       -0.7553449935        3.4141856607
  C        11.1114549403        0.2204265661       -2.0949163331
  C        11.9978203980       -0.7931339394       -2.4729136029
  C        12.1002035229       -1.2239873405       -3.8000434963
  C        11.2200695425       -0.7419044121       -4.7751597973
  C        10.3215678160        0.2363837496       -4.3871805610
  C        10.2287241198        0.6761558520       -3.0331061010
  H         9.5493014233        1.4786743152       -2.7854965948
  H         9.6468658332        0.7958635308       -5.0758597622
  H        11.3672522028       -1.0595434792       -5.7985114758
  H        12.8618984827       -1.9914628003       -4.0643570944
  H        12.6330782210       -1.3210413616       -1.8264437213
  C         8.7945776024        8.3361649795        1.3625910416
  C         7.8365981523        9.1322211523        2.1244476414
  C         6.7678439179        9.7224214912        1.4390441319
  C         5.6138006003       10.1731141328        2.0974700673
  C         4.4899805271       10.6678326276        1.4961256944
  C         7.9646357771        9.4383922956        3.5259609811
  C         8.6985255579       10.5201445110        3.9213814815
  C         8.6711795559       11.1240868243        5.2356540919
  C         7.8341679895       10.5991603445        6.1869987839
  C         7.1496024636        9.4198406352        5.8485219962
  C         7.2561160392        8.8091979602        4.5561307679
  H         5.5734789976       10.1916498525        3.2196802272
  H         3.6439890399       10.9393232815        2.0588473750
  H         9.4022403205       10.9973211099        3.2649120114
  H         9.1961199325       12.0919528460        5.3584744207
  H         7.6617382628       11.1479734977        7.1485561389
  H         6.4982767959        8.9586588654        6.5977331693
  H         6.6371680143        7.9737481454        4.3402203258
  C         8.7516523134        8.4161345110       -0.1545131253
  C         9.7308930045        7.6556858123       -0.8944406405
  C        10.8437774434        7.0096210498       -0.2425651235
  C        10.7843309835        6.8245833088        1.1865072424
  C         9.7550948212        7.4273911604        1.9321277392
  C         6.7049644351        9.7773922454       -0.0296235791
  C         7.7551409593        9.2275600392       -0.8135379671
  C         7.8001720695        9.6474412515       -2.2860814039
  C         8.6214293961       10.7556807785       -2.6470770113
  C         8.6411894232       11.1073244319       -3.9726692949
  C         7.8993656473       10.4627460887       -4.9459151396
  C         7.0113352542        9.4282510618       -4.5381553594
  C         7.0306010326        8.9672579977       -3.2316922449
  H         6.2300684136        8.3051165685       -2.9284135234
  H         6.3291717327        9.0216947874       -5.2809305747
  H         7.9519250291       10.7171336305       -6.0362362946
  H         9.1155464223       12.0186364485       -4.2897444271
  H         9.2128318501       11.2824972819       -1.8798135190
  C         5.5845903068       10.4499450386       -0.6537020755
  C         4.4478726934       10.7972011081        0.1176597822
  H         3.5621385562       11.3436932506       -0.2587399779
  H         5.6165698373       10.4740067241       -1.7449879926
  C         9.5649985273        7.0114706659        3.3652251707
  C         8.5536442791        6.0583900609        3.6409798720
  C         8.3270320921        5.6133247422        4.9884972506
  C         9.1802265142        6.0673717142        6.0404000273
  C        10.1824755984        6.9368217921        5.6731136850
  C        10.4004317790        7.4279587036        4.4122419605
  H        11.2719189712        8.0972031598        4.2429204806
  H        10.8614268973        7.3515478568        6.4188341557
  H         8.8966781063        5.7063576853        7.0092522014
  H         7.5049148446        4.8873451186        5.1215380594
  H         7.8736482778        5.7320044094        2.9004054153
  C        11.8046381901        6.0918674918        1.8771531475
  C        12.9115616980        5.6377651332        1.2045177362
  C        13.0162039190        5.8017443551       -0.2136356636
  C        12.0380901611        6.4349801880       -0.9406981549
  H        12.0099221234        6.4425739857       -2.0012340411
  H        13.8060368779        5.2476245944       -0.7656309802
  H        13.6291223729        4.9747373530        1.6740126558
  H        11.6217857926        5.8609341176        2.9201842584
  C         9.5777581285        7.2859242364       -2.3311542857
  C         8.7153700742        6.2275126787       -2.5668002970
  C         8.6265580318        5.8267039325       -3.8963826355
  C         9.4088106212        6.3893052257       -4.9601121817
  C        10.2315205290        7.4712361546       -4.7362673867
  C        10.3076687991        7.8821229143       -3.3753980387
  H        10.8754552675        8.7584843980       -3.1012402204
  H        10.6896648320        8.0779693860       -5.5106086228
  H         9.2556771522        5.8851741882       -5.9284613531
  H         8.0207892967        4.9718169412       -4.1832028210
  H         8.1950645258        5.9755096355       -1.6833765786
