140

  C        14.0257521203        0.0121964008        1.0187903457
  C        15.0419839597        0.7436623525        1.7447825725
  C        16.1045689946        1.2903209670        1.0004312618
  C        17.2132699884        1.9148746547        1.6059204380
  C        18.2617649147        2.4470329662        0.9464849061
  C        14.9983318644        1.1619605596        3.3050483363
  C        14.2791464175        2.2637623737        3.7344724907
  C        14.5264710015        2.8464921189        5.0076354231
  C        15.5218114813        2.2372543707        5.7855715380
  C        16.0902951026        1.0360839623        5.4054020087
  C        15.8760837412        0.4225790435        4.2225623251
  H        17.1418158862        1.9226398471        2.6582561805
  H        19.0319419997        2.9542864309        1.5084931247
  H        13.6168161526        2.6369521972        2.9860899090
  H        13.9637206016        3.7563349794        5.3613610240
  H        15.7114392506        2.6240028385        6.7867930804
  H        16.8299979809        0.7184265020        6.1313594669
  H        16.4463039652       -0.4336771085        3.9438867450
  C        13.9792590619        0.0361786391       -0.4896028118
  C        12.9450921122       -0.7222903249       -1.1624004026
  C        11.9072534202       -1.2463053580       -0.4017880717
  C        11.8970226734       -1.1693395537        1.0256363747
  C        12.9494831943       -0.5836593261        1.7348957722
  C        16.0561201404        1.2647180046       -0.4634232339
  C        14.9460787904        0.6861226927       -1.2359291978
  C        15.0773506819        0.8911733863       -2.7248015434
  C        14.4407132671        2.0468827304       -3.2782157214
  C        14.5865862876        2.3637420949       -4.6163264433
  C        15.5140798750        1.6810859412       -5.3710227724
  C        16.2644968109        0.5815271205       -4.8686394127
  C        15.9447931044        0.1021369287       -3.5708898650
  H        16.3668116126       -0.8669938833       -3.2456307986
  H        16.9458372592        0.0139054124       -5.4714026365
  H        15.7141300981        2.0931532460       -6.3948971071
  H        14.0324591583        3.1815892915       -5.0442526781
  H        13.9097944724        2.7486835089       -2.6124486756
  C        17.2776712727        1.7228421648       -1.1208409070
  C        18.2925664450        2.2989160913       -0.4549577439
  H        19.1847346007        2.6019508546       -0.9624259764
  H        17.2738250336        1.7209431130       -2.2222346210
  C        13.1047554268       -0.9415322527        3.1937273419
  C        13.9739133130       -2.0155516820        3.5519463900
  C        14.2277467823       -2.2893333835        4.9310779090
  C        13.3230323036       -1.7238865289        5.9154857513
  C        12.3336753762       -0.8663732665        5.5229526097
  C        12.2911456791       -0.3936703105        4.2207129136
  H        11.6948936955        0.4339915752        3.9343890192
  H        11.5792000856       -0.4961189804        6.1808575695
  H        13.5355723202       -2.0205716305        6.9355276720
  H        15.0031394888       -3.0533532448        5.2615741529
  H        14.5511688622       -2.5336954999        2.8024152304
  C        11.0033276286       -1.9393413818        1.7374541916
  C         9.9119957831       -2.6272088258        1.1857844818
  C         9.8188542421       -2.5465864543       -0.2782204135
  C        10.7331181528       -1.8112391989       -1.0294415228
  H        10.6515932829       -1.9231133772       -2.1115722386
  H         8.9867061068       -3.0781789413       -0.6829109615
  H         9.3378267278       -3.3156105119        1.7512854990
  H        11.0892292965       -1.9752197755        2.8120793293
  C        12.8691439255       -0.9273566917       -2.6107260864
  C        13.3993208071       -2.0827106253       -3.1909769459
  C        13.2480981027       -2.3408660177       -4.5462178078
  C        12.6087636079       -1.4575443896       -5.3871540550
  C        12.1628206617       -0.2762921585       -4.8388570701
  C        12.1814994500       -0.0433887418       -3.4832461342
  H        11.7797168079        0.8977927594       -3.1051713375
  H        11.6454869353        0.4256488189       -5.4814524513
  H        12.5285328272       -1.7313679695       -6.4656264167
  H        13.6382355677       -3.2750171321       -5.0200578288
  H        13.8651961367       -2.9154374824       -2.5702887526
  C        10.6778438004        7.1722116689        1.0270179296
  C         9.5809075324        7.6901724953        1.7661458356
  C         8.4581018011        8.2316860073        1.0542556979
  C         7.2419037130        8.6704791633        1.7861534452
  C         6.2351862484        9.3366842584        1.1121819071
  C         9.6616381227        8.0210973960        3.2035754425
  C        10.5126686199        9.0989337679        3.6475742109
  C        10.5004946043        9.6162767486        4.9534796268
  C         9.6430385311        8.9541339283        5.9322317026
  C         8.8383693428        7.8430804391        5.4671972590
  C         8.8875476077        7.4256408763        4.1846314760
  H         7.2147692735        8.5500384921        2.8470875947
  H         5.4131769022        9.8522028315        1.5768601592
  H        11.1600613007        9.5786995435        2.9313510049
  H        10.9581006050       10.5332030140        5.2970944530
  H         9.3546386222        9.4037135143        6.9561931532
  H         8.2245719310        7.2835516023        6.1741293859
  H         8.2719816711        6.6154888558        3.7870140584
  C        10.6600361014        7.1747288579       -0.4989784514
  C        11.7846539455        6.5832790129       -1.2168320589
  C        12.8540318964        6.0212232519       -0.4873931089
  C        12.8521848500        6.0994066255        0.9734040520
  C        11.7274564116        6.5696856332        1.7028080426
  C         8.4752487676        8.2904465779       -0.4344708241
  C         9.5538375743        7.7469875113       -1.1440223727
  C         9.6413118351        8.1059153269       -2.6045178492
  C        10.4145381327        9.2272154508       -2.9444980171
  C        10.3806355540        9.7762704574       -4.2613929612
  C         9.5046208166        9.2697470934       -5.2252189580
  C         8.7714918067        8.1249478474       -4.8676524917
  C         8.8136673451        7.4598664792       -3.6244748279
  H         8.2900059770        6.5825763637       -3.3172646743
  H         8.1815522327        7.6589340995       -5.6463828983
  H         9.4478769495        9.7193508413       -6.2090000355
  H        10.9525054378       10.7356071354       -4.3718949705
  H        11.0416327688        9.6869943628       -2.1699635865
  C         7.3954070596        9.0234498911       -1.0274889758
  C         6.2810992933        9.5266733229       -0.3120502542
  H         5.4173810766        9.9149359404       -0.8887130319
  H         7.2983986077        9.3840200965       -2.0598431594
  C        11.6965949469        6.2239511929        3.1522777798
  C        10.8215481239        5.1771606815        3.4468818934
  C        10.7231214520        4.6819394748        4.7936883124
  C        11.5850572471        5.2010817447        5.8014140332
  C        12.3023978747        6.3421305880        5.4350390981
  C        12.4661641090        6.8054830915        4.1802401949
  H        13.1853640794        7.5400738308        3.8510038436
  H        12.7935179258        6.9059350732        6.2138142813
  H        11.5560622364        4.8683123384        6.8351932075
  H        10.0150725167        3.8333935004        4.9388607257
  H        10.1462870739        4.7436636547        2.6633912719
  C        13.9272120007        5.4066221590        1.6838897757
  C        14.9264532665        4.7921214721        0.9684459804
  C        15.0846799966        4.9779097756       -0.5115233420
  C        14.0533640508        5.5159920942       -1.2161202123
  H        14.0786791926        5.6129216080       -2.2591165597
  H        16.0169634207        4.6168340576       -0.9910132468
  H        15.5889856472        4.1946463081        1.6261414236
  H        13.8863378746        5.3458514719        2.7315424901
  C        11.6478881376        6.2504698927       -2.6560650151
  C        10.8827185874        5.1295494664       -2.9872456300
  C        10.8275689798        4.7184754555       -4.3398831935
  C        11.5199795834        5.3248734390       -5.3388793592
  C        12.4016186892        6.3828369618       -4.9202465715
  C        12.4587668229        6.8347991746       -3.6062364428
  H        13.1282216591        7.6765643044       -3.3419228851
  H        13.1191434824        6.8574033415       -5.6162783006
  H        11.5856681148        5.0330778333       -6.3630796802
  H        10.2321163651        3.8542301615       -4.6831985626
  H        10.2919148347        4.5914090634       -2.2225160786
