140

  C        15.9158269272       -1.3332760035        0.1248731701
  C        16.9347487790       -0.6794079147        0.8443414303
  C        17.9674993737        0.0089223769        0.1597383116
  C        19.2161093324        0.4797697527        0.8672277428
  C        20.2864721083        1.0355564159        0.1939493607
  C        16.9130733366       -0.5241735113        2.3448797227
  C        16.2165487969        0.5380829426        2.8925185366
  C        16.3422408574        0.9096874396        4.2334372034
  C        17.2167104852        0.2498142864        5.0317223384
  C        17.9185195686       -0.8820649768        4.5366083813
  C        17.7243041315       -1.3189231477        3.2066507894
  H        19.2102718987        0.3013482375        1.9402129247
  H        21.0840032763        1.4140598839        0.7026437489
  H        15.4943948227        1.0438172655        2.2663829507
  H        15.7678050533        1.7026312063        4.6383158915
  H        17.4319609338        0.6910161241        6.0307672373
  H        18.6061470112       -1.3633086316        5.2810809754
  H        18.2930644052       -2.1052148601        2.8607718166
  C        15.9759789628       -1.3455274460       -1.3169361755
  C        15.0662770947       -2.1578612133       -2.1037554293
  C        14.0534886099       -2.8293652090       -1.4067209786
  C        13.9034451704       -2.6575820140        0.0445647030
  C        14.8926900968       -1.9907064336        0.8395763550
  C        17.9948089886        0.0586648947       -1.2606783033
  C        16.9716989945       -0.5908471170       -1.9700407233
  C        16.8767897172       -0.2287503832       -3.3781373826
  C        15.8968750828        0.7229103727       -3.6634142473
  C        15.8071309200        1.2727676887       -4.9751717077
  C        16.5923398551        0.7296193874       -6.0207138684
  C        17.6531763338       -0.1582008844       -5.6866189670
  C        17.8452349908       -0.5713339060       -4.3344939061
  H        18.7009473060       -1.3124458589       -4.1531564303
  H        18.2731208514       -0.5098579691       -6.5007616672
  H        16.3359298788        0.9219245410       -7.0655233209
  H        15.0633966598        1.9934966274       -5.2490211728
  H        15.1510992688        1.0077274188       -2.9228535470
  C        19.2202994938        0.5837029206       -1.8910788930
  C        20.2307999053        1.2286822707       -1.2107315541
  H        21.0308484789        1.6231201764       -1.7835750636
  H        19.2385820531        0.6319326566       -3.0135442253
  C        15.0375129356       -2.4532790395        2.2653112035
  C        15.8277506422       -3.6242613193        2.3829728480
  C        16.1026612842       -4.1527421473        3.6693488789
  C        15.3804331249       -3.6731231089        4.7199635257
  C        14.5995681125       -2.5568933533        4.5789436506
  C        14.3344522419       -2.0312033829        3.3480431049
  H        13.5416181540       -1.2363055860        3.3446689551
  H        13.9278476403       -2.0673557921        5.3785632350
  H        15.4168749576       -4.1051465423        5.7249486844
  H        16.7403292616       -4.9796161325        3.7372089456
  H        16.4359186417       -3.9118763657        1.5447225160
  C        12.8068422419       -3.3112077049        0.6571793614
  C        12.0174385935       -4.1909265128        0.0246014692
  C        12.0936582431       -4.4321551839       -1.4120047177
  C        13.0511106778       -3.6884695868       -2.0495555513
  H        13.1303147416       -3.7628631593       -3.1237126345
  H        11.2237873165       -4.9782457290       -1.8136179172
  H        11.1326130375       -4.6572831068        0.4877637442
  H        12.5710335419       -3.0562897670        1.7130413083
  C        15.1810361090       -2.5230009588       -3.5733728600
  C        16.1023559311       -3.4901300962       -3.8905866404
  C        16.3074848735       -3.9467498045       -5.1912807334
  C        15.5267622542       -3.3854399966       -6.2591130845
  C        14.4172917980       -2.4879217574       -5.8780496002
  C        14.3088535130       -2.0197665447       -4.5839560554
  H        13.5080111910       -1.3083534890       -4.2871605765
  H        13.6930231938       -2.1703571165       -6.5694382198
  H        15.6790306190       -3.7421568424       -7.2919536424
  H        17.1174984827       -4.6169872506       -5.3611819817
  H        16.7034957452       -3.9415521579       -3.0924884269
  C        12.6416332562        5.9830896204        0.0652762190
  C        11.6456340189        6.7280534972        0.7163203684
  C        10.4575116583        7.1237111406        0.0044203373
  C         9.2776926012        7.7237750836        0.7169269537
  C         8.3541712333        8.3379366805       -0.0206195213
  C        11.6722327551        7.0173956165        2.1367483798
  C        12.5338817283        7.9553298914        2.6835036235
  C        12.3272489053        8.4031802975        3.9740620668
  C        11.3064590134        7.8024964347        4.8318439702
  C        10.6084307065        6.7180128635        4.3381872643
  C        10.7542982962        6.4132064594        3.0185115426
  H         9.0782104031        7.7596368760        1.7955972017
  H         7.5597879764        8.8110648410        0.5478351035
  H        13.3324019492        8.3475562012        2.1298302404
  H        12.9205142702        9.2022115031        4.3999574480
  H        11.1502246070        8.2835231069        5.7671326871
  H         9.8096581037        6.2143787071        4.8607937308
  H        10.0836105661        5.5897720471        2.5371290126
  C        12.5905883101        5.9397265390       -1.4481119612
  C        13.6167744137        5.1641931341       -2.0705916123
  C        14.7695510353        4.6678608377       -1.3465426380
  C        14.7176565981        4.6884485702        0.0802905345
  C        13.7255069266        5.3979312645        0.7303098344
  C        10.4413936290        7.2228529879       -1.4321209051
  C        11.5484492887        6.6106479428       -2.1823583120
  C        11.5739251592        6.9480681726       -3.6901771697
  C        12.2263389617        8.1166631059       -4.0390144893
  C        12.0850414804        8.6762830088       -5.3201881541
  C        11.2363827744        8.1589416547       -6.2504916688
  C        10.5136742257        7.0224243345       -5.9321170339
  C        10.6733596253        6.4534664277       -4.6759206975
  H        10.0284837152        5.6968582839       -4.3745745166
  H         9.7205386171        6.6176010493       -6.5938546939
  H        11.1643871444        8.6090746940       -7.3119417841
  H        12.6431598811        9.5358658331       -5.4449909485
  H        12.7478562507        8.6060302519       -3.2596633106
  C         9.4207452861        7.8629215451       -2.1095905877
  C         8.4153071404        8.4514272480       -1.4315251891
  H         7.6278664323        8.9429498515       -1.9653399386
  H         9.4541275755        7.8056145712       -3.2002554533
  C        13.5397503808        5.0038161959        2.1911419447
  C        12.7544297220        3.8383715169        2.4080381791
  C        12.7396487845        3.1501398408        3.5827358015
  C        13.4949337061        3.5577281858        4.6741927737
  C        14.2939363335        4.7304624578        4.5461032656
  C        14.3342847607        5.4240925906        3.2567357390
  H        14.9836687364        6.2785679845        3.1002486934
  H        14.9626248561        5.0843545477        5.3645975727
  H        13.3864765606        2.9046858739        5.5485890029
  H        12.2520514938        2.1653231994        3.6332662839
  H        12.1617036221        3.5015554358        1.5773487486
  C        15.5798556596        3.8568366429        0.8274977204
  C        16.5397428712        3.0984582452        0.2265944815
  C        16.7153522269        3.1697920610       -1.1794708710
  C        15.8005700554        3.9643677631       -1.9834496089
  H        16.0276933977        4.0887630466       -3.0415300307
  H        17.5667032535        2.6584505510       -1.5795174519
  H        17.3198289645        2.5882796027        0.8630330005
  H        15.4419522909        3.6942746990        1.9070830254
  C        13.4385076262        4.8062452774       -3.4841152041
  C        12.7375182869        3.6484803484       -3.8692091591
  C        12.7039572585        3.2283053232       -5.2046804065
  C        13.3240418952        3.9756826963       -6.2030767846
  C        14.1139580973        5.0715582147       -5.8121404169
  C        14.2338578904        5.4559103656       -4.4771330184
  H        14.6649355118        6.4194488834       -4.1674525931
  H        14.6806459338        5.6615683065       -6.5376495616
  H        13.2478420298        3.6314719151       -7.2928086424
  H        12.1374365931        2.3828189165       -5.4353899036
  H        12.2221861413        3.1459830247       -3.0885843851
