140

  C         2.1738280850        0.5519791277       14.8259412945
  C         3.1734339914        1.3481009884       15.4184467414
  C         4.2147123045        1.9311741286       14.7066982958
  C         5.2651612846        2.6113189210       15.3567716361
  C         6.2167070878        3.2665845739       14.7014503058
  C         3.1962491198        1.6918566503       16.9608923187
  C         2.3891355283        2.7717322658       17.4313155281
  C         2.2998141957        3.0964421279       18.7841697567
  C         3.0946048424        2.4456713509       19.7028020863
  C         3.8279871551        1.3292781141       19.3031556297
  C         3.9154860534        0.9652180587       17.9657795936
  H         5.2954114250        2.6337755831       16.4466284411
  H         7.0267919606        3.8047141648       15.2630258365
  H         1.7271310220        3.3007834766       16.7488525401
  H         1.5657948152        3.8132270979       19.1239251169
  H         2.9652880344        2.6161300472       20.7722142431
  H         4.3441155932        0.6538541407       19.9808341499
  H         4.4829142949        0.0965479318       17.6475813854
  C         2.1993936353        0.5428503709       13.3341757390
  C         1.1014444161       -0.0871383454       12.6045165842
  C        -0.0327079864       -0.6045030096       13.4105343964
  C         0.0278619033       -0.6467552688       14.8387138974
  C         1.1325989682       -0.1750596093       15.5297230232
  C         4.2869971615        1.8029710406       13.2748127406
  C         3.2232274152        1.1555965919       12.5686302923
  C         3.0755885998        1.6522664567       11.1830245802
  C         2.3071138062        2.7965682991       10.8890072247
  C         2.3201592941        3.3773861617        9.6019956487
  C         3.1084956216        2.7864814415        8.6071511824
  C         3.7511059973        1.5805364290        8.9206683605
  C         3.7281971128        0.9802318214       10.1263493282
  H         4.2006487894        0.0097698729       10.1528194049
  H         4.3048631858        1.1832849094        8.1175698402
  H         3.1946342678        3.1671465427        7.5959752231
  H         1.7072507909        4.2327264271        9.3586513214
  H         1.7844472512        3.3618448876       11.6406866816
  C         5.3347155131        2.5162009989       12.5677229587
  C         6.2781937711        3.2357455809       13.2750451724
  H         7.0379026079        3.8574105576       12.7654130128
  H         5.4599132129        2.3305524219       11.4717471844
  C         1.1948024219       -0.5040711277       16.9384658188
  C         2.0475263462       -1.6037330967       17.2477844082
  C         2.0528279573       -2.0902731904       18.5745193674
  C         1.1840612952       -1.4846162053       19.5168530429
  C         0.4265275027       -0.3779203698       19.1832743191
  C         0.5374806025        0.1666308299       17.9314611730
  H        -0.0510849800        1.0718951678       17.6682113160
  H        -0.1521310106        0.1170461235       19.9924666750
  H         1.3003407784       -1.7997953432       20.5583586509
  H         2.7912506744       -2.9383635779       18.8356275605
  H         2.6585611642       -2.0228696224       16.4457334327
  C        -1.0292336623       -1.2204520136       15.5483547099
  C        -2.1363651872       -1.8034361739       14.9718788535
  C        -2.2515822761       -1.5694549889       13.5628068013
  C        -1.2309099149       -1.0313104378       12.8192130751
  H        -1.4062881826       -0.9215613050       11.7810870894
  H        -3.1331075660       -1.9310834156       13.0030727005
  H        -3.0243468099       -1.9759061454       15.5196750710
  H        -0.8750700799       -1.2466650617       16.6299849437
  C         1.0415558293       -0.2943595752       11.1425799166
  C         1.8874175170       -1.2954338106       10.6581879051
  C         1.8524121859       -1.7510559077        9.3377580676
  C         0.9760726731       -1.0887454183        8.4045634561
  C         0.0827091792       -0.1205266957        8.9220779605
  C         0.1314746715        0.2984088203       10.2171520233
  H        -0.4506019699        1.1430759319       10.5470798169
  H        -0.6075716452        0.4411775965        8.2799364147
  H         0.8612312102       -1.4513488779        7.4235802054
  H         2.5334139659       -2.5617191526        8.9669893734
  H         2.6232044926       -1.6726184883       11.3622851765
  C        -1.6629350444        7.8411715239       14.7248560886
  C        -2.6146846761        8.5976920771       15.3668940852
  C        -3.7360978519        9.1132068471       14.6406577289
  C        -4.8135458360        9.8181874304       15.2238847457
  C        -5.7476973241       10.4213586777       14.4299533992
  C        -2.4840352396        8.9767738807       16.7960791762
  C        -1.5013193958        9.8671282546       17.1945675522
  C        -1.3428554330       10.3197504931       18.5116242126
  C        -2.1671963340        9.8715445355       19.5423921583
  C        -3.2064584775        8.9602950124       19.1531235326
  C        -3.3866834829        8.5754482255       17.8565809216
  H        -4.8662375090        9.9066280473       16.3279290904
  H        -6.5769465829       10.9943097969       14.8195156582
  H        -0.7491248898       10.1384598134       16.4946438539
  H        -0.5222647367       11.0363095194       18.6941498462
  H        -2.1837886377       10.1924456409       20.5760852897
  H        -3.9097800005        8.6268604678       19.8973256798
  H        -4.3082050095        8.0343137865       17.5599954511
  C        -1.6120251960        7.7806708497       13.2505733242
  C        -0.6084120262        7.0589456908       12.6251738232
  C         0.5315732970        6.5322083469       13.3480663232
  C         0.4845301730        6.5636984517       14.8009194363
  C        -0.6865738186        7.0556091321       15.4843171368
  C        -3.6149226463        9.1664224113       13.2045085126
  C        -2.5726154464        8.5474441750       12.5007769592
  C        -2.3673898533        8.9612451481       11.0493822779
  C        -1.5585018676       10.0939037467       10.7608494611
  C        -1.5217504682       10.6388197757        9.4634339825
  C        -2.4012823424       10.1745415770        8.4757666523
  C        -3.2294349813        9.0632629390        8.7254246856
  C        -3.1844351497        8.4758981014       10.0173125277
  H        -3.8049550896        7.6597650319       10.3352133963
  H        -4.0267771447        8.7481815168        8.0563704526
  H        -2.4606612606       10.6775779136        7.5080633501
  H        -0.9391319788       11.5322957678        9.2539152357
  H        -0.9061982235       10.4144160548       11.5409949367
  C        -4.5619608346        9.9461223324       12.4145010706
  C        -5.6458715561       10.5366934056       13.0010876843
  H        -6.3450277144       11.2212195871       12.4388957070
  H        -4.3271221727       10.0939782043       11.3648589468
  C        -0.8188454732        6.6053894238       16.8860830802
  C        -1.6775833959        5.5479228231       17.2185381401
  C        -1.7705851087        5.1195548915       18.5167133370
  C        -1.0971400675        5.7647484816       19.5803069648
  C        -0.1258618391        6.7403010589       19.2229743758
  C         0.0251756680        7.1266385446       17.8560024648
  H         0.7861800230        7.9108611589       17.6269372102
  H         0.5253773264        7.2161226848       19.9666631519
  H        -1.2594188026        5.5256130032       20.6525653360
  H        -2.3281130824        4.2325450888       18.7854921148
  H        -1.9999313969        4.9737245287       16.4067460728
  C         1.5391611275        5.8700279404       15.4496048320
  C         2.6277866262        5.2966927331       14.8595064788
  C         2.6421834508        5.2036126972       13.4407225173
  C         1.6160874938        5.8369661161       12.7589598467
  H         1.5311772452        5.8378646743       11.6364170667
  H         3.4116433802        4.6493774843       12.9227895690
  H         3.4662274872        4.8774706441       15.4752104524
  H         1.4203015622        5.8246421452       16.5360421190
  C        -0.6005721887        6.7533138889       11.1698107153
  C        -1.4336162225        5.6576899878       10.7690113516
  C        -1.4311260084        5.2404237132        9.4486466786
  C        -0.6661125241        5.9024349923        8.4820486725
  C         0.0696645704        7.0218496771        8.8707786429
  C         0.1208266965        7.4256506485       10.1736512893
  H         0.7946663952        8.2895061947       10.5127973664
  H         0.6569971995        7.4536540864        8.0632606546
  H        -0.6904171663        5.8145894459        7.4015769266
  H        -2.0002257891        4.3454224038        9.2536887193
  H        -1.9998962824        5.1883974159       11.5219912817
