140

  C        14.6612634233       -0.2700776069        0.5612563662
  C        15.6645135003        0.4602282760        1.2556825866
  C        16.8313948323        0.9646544715        0.6481066891
  C        17.8169768484        1.6323538629        1.4144146322
  C        18.9263161797        2.1712850269        0.8212612025
  C        15.4828552488        0.7319641091        2.7195299424
  C        14.7726088646        1.8135293702        3.2178466336
  C        14.6256573373        2.1329139947        4.5340626875
  C        15.3579971035        1.4242102118        5.5616894612
  C        16.1715403249        0.2716174104        5.1793328555
  C        16.2752778526        0.0654659439        3.7850810032
  H        17.6443558045        1.7053518135        2.4564816209
  H        19.5074803145        2.8757288084        1.3583568930
  H        14.2292000244        2.4425750852        2.5231213722
  H        14.0096784553        2.9807046839        4.8975488940
  H        15.3639316469        1.6835262173        6.6101342202
  H        16.9364041979       -0.0372674037        5.8711865975
  H        16.8886490005       -0.8353058195        3.3869920847
  C        14.8419348531       -0.2442243649       -0.9182891736
  C        13.8229913393       -0.8901425968       -1.6724552063
  C        12.6275029563       -1.2967244037       -1.0404299464
  C        12.4537435389       -1.3284610107        0.3788246556
  C        13.5784455809       -0.8905229458        1.2005973439
  C        17.0163739324        0.8535844595       -0.8338792226
  C        15.9461381350        0.3268552937       -1.5848842853
  C        15.9673831915        0.8064315011       -3.0096410472
  C        15.2072074750        1.9393289402       -3.3362509477
  C        15.2521899240        2.6228326838       -4.5812543162
  C        16.0180425221        2.0355237382       -5.6009582061
  C        16.6898347052        0.8489501138       -5.3376133598
  C        16.6567749727        0.2194853987       -4.0731322306
  H        17.2866883063       -0.6623267856       -3.8304803258
  H        17.3226466890        0.4653239859       -6.1384702278
  H        16.1539297230        2.6717267870       -6.4831923938
  H        14.5937359206        3.4695912034       -4.7568135426
  H        14.7293406970        2.3997077206       -2.4803064654
  C        18.2758143254        1.3126813969       -1.3642234157
  C        19.2378798908        1.9101866901       -0.5640062821
  H        20.2023468558        2.2766671790       -0.9728989161
  H        18.3616585112        1.3351345335       -2.4272514711
  C        13.5850526840       -1.3240257655        2.6108094489
  C        14.4373432894       -2.4342712538        3.0127154652
  C        14.3219872519       -2.9137875073        4.2924526687
  C        13.4781086094       -2.3970744589        5.2406338385
  C        12.6791433833       -1.2682739594        4.9190974700
  C        12.7735767086       -0.7658231524        3.5752240447
  H        12.2883067102        0.1172353605        3.2981284961
  H        11.9472935667       -0.8687480919        5.6372720430
  H        13.5392277286       -2.6974252034        6.3118621210
  H        14.9650073612       -3.6990034080        4.6158972346
  H        14.9681603014       -2.9011223807        2.1792819376
  C        11.2863397312       -1.9500586081        1.0017983376
  C        10.3062654793       -2.5175568232        0.2534483817
  C        10.3588307875       -2.4234142107       -1.1795007522
  C        11.4549438955       -1.8555375742       -1.7415464127
  H        11.3938962647       -1.7678371466       -2.8751260349
  H         9.5550919134       -2.7940403038       -1.7634068667
  H         9.4409480458       -3.0358502883        0.6612763819
  H        11.1600522086       -1.9667632182        2.0853937908
  C        13.8134582847       -1.2314777093       -3.1218504304
  C        14.3185259047       -2.5462149224       -3.4369005868
  C        14.3551255576       -3.0501057331       -4.7575721182
  C        13.7730128467       -2.2707679558       -5.7690898422
  C        13.3101034419       -0.9905057870       -5.5103348189
  C        13.3746152281       -0.4657259936       -4.2042235925
  H        12.9630924095        0.5631168324       -4.0467961295
  H        12.9847147148       -0.2521068628       -6.2753862750
  H        13.7493071357       -2.6162260321       -6.7780028833
  H        14.8042225094       -4.0227926851       -5.0105162961
  H        14.7794037774       -3.1408448572       -2.6282427636
  C        11.4195239918        7.0987780282        0.5014934093
  C        10.3329702445        7.7452377237        1.2248653209
  C         9.2690939560        8.3714702893        0.4795580263
  C         8.2017202330        9.2346053267        1.0150181335
  C         7.2731527262        9.8768704574        0.3162638253
  C        10.2635349987        8.0792915341        2.6743163998
  C        11.0011949524        9.2179084843        3.0660906744
  C        10.9963465219        9.6243925420        4.3875971568
  C        10.1923176195        9.0032418888        5.3127461454
  C         9.4755679409        7.8280060874        4.9241105362
  C         9.3844021542        7.4471217804        3.6117478571
  H         8.1411445102        9.2518639656        2.0455892454
  H         6.6445377166       10.6540236768        0.6651139294
  H        11.6583833091        9.7755355854        2.4157735267
  H        11.5457099228       10.4695496657        4.7219251949
  H        10.2027290974        9.2465023295        6.3137694004
  H         8.8211695099        7.4175220424        5.7868862328
  H         8.6843117255        6.6454162690        3.3437528057
  C        11.3719355316        7.0553270741       -0.9475739290
  C        12.3812608582        6.3179724868       -1.6152833840
  C        13.3962072819        5.6161003013       -0.9093262277
  C        13.3869203995        5.6037714751        0.5120565337
  C        12.4015320702        6.2936708539        1.1523614503
  C         9.2356754483        8.3224921061       -0.9229726325
  C        10.3416623995        7.7932848877       -1.6133827436
  C        10.4932381943        8.0330723704       -3.1041112529
  C        11.2364758444        9.1915685016       -3.5135394845
  C        11.1267110416        9.6234690242       -4.8558483522
  C        10.2856934500        8.9946318029       -5.8085011944
  C         9.4129639941        7.9394580197       -5.3324681678
  C         9.5574087377        7.4692688266       -4.0673883221
  H         8.8088593280        6.7565113373       -3.6582968846
  H         8.7614464472        7.4308911077       -5.9977853092
  H        10.1957597851        9.3044552187       -6.8204032589
  H        11.6487879117       10.5338478643       -5.1211333093
  H        11.6975750802        9.9032885479       -2.8377002427
  C         8.2635746814        9.0219950341       -1.6969890900
  C         7.2977300719        9.8110421565       -1.1160248493
  H         6.6121174514       10.4391123342       -1.7764346240
  H         8.4529062128        9.1413264952       -2.7465973997
  C        12.2835951977        6.0790218389        2.6579049876
  C        11.4673869015        5.0330267023        3.1028491193
  C        11.3517847534        4.6376450254        4.4379468491
  C        12.1996916910        5.2766171111        5.3792445194
  C        13.0342689503        6.2942795804        4.9774240693
  C        13.1505645935        6.6270048692        3.6017706076
  H        13.8639140578        7.3997658432        3.3058356093
  H        13.6723585741        6.6610202590        5.7786100657
  H        12.1698203113        4.9150732604        6.4373917110
  H        10.7454029927        3.7595315299        4.6414343349
  H        10.8724694726        4.5355613978        2.3877237702
  C        14.4686344587        4.8543442802        1.1786154023
  C        15.4794887144        4.2313869914        0.4484251076
  C        15.5177279683        4.3234618784       -0.9413323452
  C        14.4610670688        4.9359508147       -1.5583962650
  H        14.3771089812        4.9733702945       -2.6022118302
  H        16.2525427247        3.8649764696       -1.5582686734
  H        16.1479424009        3.5064762013        0.9503713655
  H        14.4140463085        4.9794328950        2.2486664693
  C        12.2478447975        5.8494501792       -3.0441712265
  C        11.4841375964        4.7779925915       -3.4249081694
  C        11.3716551803        4.3431728062       -4.7793541866
  C        12.1426171431        4.9366052345       -5.7287160023
  C        13.0618662455        6.0211148549       -5.3642362716
  C        13.0784749531        6.4570083748       -4.0163726952
  H        13.6537350307        7.3654288330       -3.6843868370
  H        13.8759204547        6.4569414301       -5.9697564014
  H        11.9903265223        4.5792729009       -6.7121015601
  H        10.7073259143        3.5080842866       -5.0802727261
  H        10.8248728952        4.2528664498       -2.7629851418
