140

  C        12.9712733047        0.7059185210        1.3896382572
  C        14.0438133162        1.4207211956        2.0831703326
  C        15.1186553722        2.0290443739        1.3999103407
  C        16.2196846607        2.6885361111        2.0264251238
  C        17.2117789779        3.2573518286        1.2911976294
  C        14.0155850759        1.7048639639        3.5601377870
  C        13.3001609877        2.7552100373        4.1249875612
  C        13.3826487313        2.9721695982        5.4885029010
  C        14.2286677178        2.2480729180        6.3398797078
  C        14.9533899500        1.2191644490        5.7662325725
  C        14.8572090245        0.9840584070        4.4248320490
  H        16.2476111513        2.8432555032        3.1040188855
  H        18.0085968053        3.8321012597        1.7774012726
  H        12.6690690886        3.4757034098        3.5859946303
  H        12.8518028961        3.8153598049        5.9492400316
  H        14.3556945258        2.5650125942        7.3667412572
  H        15.6768991982        0.6009306584        6.3044892801
  H        15.4639133542        0.2491715890        3.9044971352
  C        13.0076546016        0.6818599459       -0.0870847537
  C        11.9746090632        0.0217464191       -0.8178618125
  C        10.8088061216       -0.4684741210       -0.0866045358
  C        10.8006068494       -0.4897733998        1.3669722425
  C        11.9819457735       -0.0514252057        2.0824719898
  C        15.0858107026        1.9544517794       -0.0393890437
  C        14.1007777321        1.3261560707       -0.7570113914
  C        14.1223442512        1.6075548167       -2.2293046624
  C        13.3425401676        2.6774611670       -2.8440795356
  C        13.4555481580        2.9046813539       -4.2203909839
  C        14.3230960474        2.1552713221       -5.0749155918
  C        15.0050262325        1.1068625839       -4.4904288453
  C        14.8580727970        0.8169871852       -3.1148820820
  H        15.2905725785       -0.0906316038       -2.7173117776
  H        15.7729031219        0.5205235386       -5.0371973027
  H        14.4894012049        2.3680362991       -6.1411256467
  H        12.7671045404        3.5715278082       -4.6986906771
  H        12.8393291050        3.3912205489       -2.2121668642
  C        16.1038922674        2.6559405736       -0.7692053157
  C        17.1676621269        3.2490427556       -0.1529333736
  H        18.0506860187        3.6901922130       -0.6878631803
  H        16.0938157806        2.5546798376       -1.8633613256
  C        12.0413134651       -0.3514951149        3.5591719784
  C        12.7317784587       -1.5062771121        4.0100411308
  C        12.6981168071       -1.8158092131        5.3530997665
  C        11.8272921465       -1.1492128291        6.2024278427
  C        11.0935284951        0.0457068586        5.8300216168
  C        11.2119634304        0.3773766530        4.5145875480
  H        10.7017693318        1.2909730252        4.1146528728
  H        10.5474586499        0.5621182394        6.6389370125
  H        11.9003475051       -1.4600232154        7.2407766014
  H        13.4326058619       -2.4904670520        5.7730900469
  H        13.3781025858       -2.1246951145        3.3167486464
  C         9.8097984140       -1.1655709885        1.9992414488
  C         8.7625669174       -1.7707396801        1.3015382975
  C         8.7603047269       -1.8185121554       -0.1522913610
  C         9.7637609668       -1.1584674371       -0.8402240136
  H         9.5987425230       -1.1323611027       -1.8939287197
  H         7.9659067404       -2.4538320074       -0.5815375848
  H         7.9957653360       -2.2711480840        1.8578799895
  H         9.7518939711       -1.1812781504        3.0715278690
  C        11.8523341077       -0.1893187817       -2.2438642837
  C        12.4409978416       -1.3558164467       -2.7206199137
  C        12.2894773794       -1.7887862630       -4.0577927185
  C        11.4024253048       -1.1120281471       -4.9351726421
  C        10.7803266127        0.1201332343       -4.4455258546
  C        11.0891667221        0.5782132394       -3.1276703225
  H        10.5619125999        1.4945453226       -2.7377255162
  H        10.0434496470        0.5873303434       -5.0552021646
  H        11.2312721609       -1.4308615724       -5.9444472243
  H        12.8593697000       -2.6280793636       -4.4234366993
  H        13.0159371426       -2.0136270490       -2.1118543919
  C         9.2139117158        7.4493983595        1.5036228446
  C         8.2998868748        8.3361319513        2.2307740679
  C         7.2288376588        8.9789529445        1.5697317945
  C         6.1928014071        9.6553691094        2.3523934677
  C         5.1334390025       10.1657267803        1.6694199504
  C         8.4783952020        8.6795611512        3.6755325913
  C         9.2480396993        9.8966440609        3.9966688628
  C         9.2744233145       10.4776348821        5.2332519169
  C         8.4524357758        9.9347623443        6.2580631421
  C         7.8017999239        8.7189274755        5.9316006234
  C         7.7791581266        8.1048091785        4.6881163758
  H         6.1459769803        9.7524743064        3.3981613736
  H         4.3336302246       10.7306918336        2.1873508828
  H         9.8302202693       10.2605107500        3.2051985353
  H         9.7897288649       11.4392317230        5.3678718679
  H         8.3575237744       10.2690178295        7.2749350485
  H         7.2423689081        8.2359156073        6.6623943048
  H         7.2852107603        7.1582114658        4.6732834461
  C         9.2058934731        7.4974750555       -0.0135118227
  C        10.2558193663        6.7891381430       -0.6938006217
  C        11.3933712018        6.2836836406       -0.0578537652
  C        11.4668361305        6.4009189935        1.3829929040
  C        10.3362142615        6.8483479472        2.1276847069
  C         7.2061145881        8.9754544913        0.1408247135
  C         8.2197990022        8.3566539065       -0.6431300261
  C         8.2216812343        8.7492973187       -2.1009857249
  C         8.9712542168        9.8955818557       -2.3613859238
  C         9.0722304704       10.3211190065       -3.7124205969
  C         8.4924424563        9.6948455194       -4.7392398030
  C         7.8169346659        8.4996972719       -4.4647361029
  C         7.7154280306        7.9938080317       -3.1417140501
  H         7.1938920508        7.0991223021       -2.7379411086
  H         7.2797618596        8.0085534780       -5.2723488898
  H         8.3971403778       10.0621037345       -5.7561616672
  H         9.6633219327       11.1494508507       -4.0324737317
  H         9.5234366412       10.4475035471       -1.5586234542
  C         6.1901148146        9.7153667429       -0.4876477412
  C         5.2381626463       10.2625999990        0.2278108776
  H         4.4071661592       10.8727608743       -0.1649702989
  H         6.2004262344        9.7967245865       -1.5715636170
  C        10.3267863642        6.4163201604        3.5990188485
  C         9.6306655334        5.2830235713        3.9662900090
  C         9.5958146132        4.7604432165        5.2593962984
  C        10.3919989265        5.2995775316        6.2534271831
  C        11.0994619572        6.5007113585        5.8866521573
  C        11.0933244694        7.0643551739        4.6298002200
  H        11.8439582557        7.8580588592        4.4067296086
  H        11.7542656333        6.8158069093        6.6757384341
  H        10.3922364566        4.8899501076        7.2739549227
  H         9.0568162205        3.8582769928        5.4685572831
  H         8.9029169429        4.7927691337        3.3263511137
  C        12.4841024252        5.6686094734        2.0566812101
  C        13.5272697176        5.0367944206        1.3396952855
  C        13.4522418182        4.9751087740       -0.0916560161
  C        12.4067809380        5.5296964645       -0.7950453420
  H        12.2981553144        5.3249327067       -1.8205084254
  H        14.3107439448        4.5117430408       -0.6356929154
  H        14.4859791634        4.6770099208        1.7412209244
  H        12.5184395026        5.5377853059        3.0853580817
  C        10.3097752959        6.6675780463       -2.2226599238
  C         9.5563130107        5.6292122213       -2.7216173496
  C         9.6665492290        5.3244674611       -4.0885719303
  C        10.6077633012        5.9747676490       -4.9151037347
  C        11.4412520885        6.9685445952       -4.3797532944
  C        11.2271986793        7.3019622197       -3.0187780742
  H        11.9668073973        8.0979209357       -2.7169601070
  H        12.1475167347        7.5472990501       -5.0385650737
  H        10.6599257045        5.7443909871       -6.0007615785
  H         8.9612558680        4.6059267897       -4.5053367110
  H         8.8240014072        5.2463406667       -2.0676436996
