140

  C         3.4166233663        0.1861746858       14.7902939027
  C         4.4477913675        0.8477562072       15.5056202576
  C         5.5210300778        1.4430289754       14.7695953043
  C         6.5914474081        2.1565674200       15.4073833198
  C         7.6404887529        2.7098676865       14.6790717718
  C         4.2444262393        1.2622434377       16.8753914296
  C         3.4836533447        2.4293367954       17.0499574974
  C         3.4133231355        2.9122645916       18.3882518253
  C         4.2000955692        2.3915410304       19.4786018918
  C         5.0389225416        1.3142216053       19.2203547455
  C         4.9636605218        0.7028539035       17.9494585001
  H         6.6446162719        2.1247358468       16.5360999807
  H         8.5279849593        3.1702175995       15.1751381097
  H         3.0286877424        2.9826593918       16.2433731045
  H         2.7820290979        3.7540885471       18.6576001188
  H         4.1717593392        2.8483404129       20.4875568066
  H         5.6610179253        0.8466877846       19.9368900341
  H         5.4880599791       -0.2799462756       17.8058284855
  C         3.4383212063        0.2291198722       13.3458995864
  C         2.4091615046       -0.5709011169       12.5872372282
  C         1.2562354729       -1.0912161251       13.2362512201
  C         1.3234984681       -1.1698786076       14.7364982927
  C         2.4316650862       -0.6126989946       15.4397970522
  C         5.4875332179        1.4895693307       13.3265832423
  C         4.4228141132        0.8875114840       12.6085880233
  C         4.3084244529        1.3089932655       11.1003988811
  C         3.3918686515        2.2565876056       10.6929700395
  C         3.3157451781        2.5934843025        9.3212323036
  C         4.2868801981        2.2545250159        8.4059290187
  C         5.2949043381        1.3630745667        8.8547332459
  C         5.2879991377        0.8681558687       10.1311389060
  H         5.9272178531        0.0091693305       10.3498249887
  H         6.0639879126        1.0256019554        8.1492910982
  H         4.1851083966        2.4950299271        7.3262092224
  H         2.5760045107        3.3612405864        9.0616828262
  H         2.6642627625        2.7757327280       11.2903919284
  C         6.6342005712        2.0473615494       12.6623501122
  C         7.7152617236        2.6182681605       13.2224469481
  H         8.5274610111        3.0695324753       12.7017543984
  H         6.4814233130        1.9926353611       11.6099297290
  C         2.4119362408       -1.0582724588       16.8836762263
  C         3.1778034588       -2.1201014474       17.3049016088
  C         3.1797020779       -2.6068130579       18.6509052680
  C         2.3114335430       -2.0197976236       19.6181848681
  C         1.5255271809       -0.9338776138       19.2365066365
  C         1.6513480243       -0.3851760911       17.9256043332
  H         1.1587356668        0.4617016046       17.5332063418
  H         0.7742349758       -0.5446447270       19.8998444925
  H         2.2411268941       -2.3910207578       20.6734201507
  H         3.9320394540       -3.3841868144       18.9270780966
  H         3.9477379345       -2.6166784009       16.7077611244
  C         0.1740379243       -1.7194009083       15.4672052859
  C        -0.9119820091       -2.2248565876       14.7729214822
  C        -0.9174657096       -2.3714150684       13.3751023497
  C         0.2053239382       -1.8661002532       12.6590133497
  H         0.1409314547       -1.9298370349       11.5512059152
  H        -1.7609787484       -2.8434870497       12.9371749537
  H        -1.7451582833       -2.6934526068       15.3070805001
  H         0.1553773694       -1.6795231158       16.5405889410
  C         2.5293689604       -1.0283964237       11.0960241548
  C         3.3648100309       -2.0589815686       10.6709644220
  C         3.2816444910       -2.5700551187        9.3423727599
  C         2.3164850252       -2.0592685809        8.4815085105
  C         1.4650323966       -1.0201156503        8.9123867717
  C         1.4935023139       -0.5052518847       10.2026631530
  H         0.8522186637        0.3578731897       10.4415731217
  H         0.7963951669       -0.5520284506        8.1353859692
  H         2.2888503133       -2.4721380320        7.5032052912
  H         3.9567949643       -3.2665256276        8.9022825124
  H         4.0869902112       -2.2658853026       11.4388602246
  C        -0.1708746784        7.0771727770       14.4701589560
  C        -1.2130434717        7.7752355902       15.1935589190
  C        -2.2707163781        8.4498766143       14.4982753574
  C        -3.3548688374        9.1151288789       15.2392180458
  C        -4.2828611688        9.8699015758       14.5826771327
  C        -1.2248861643        8.0153017558       16.6783406748
  C        -0.4443282164        9.0829233540       17.2307056892
  C        -0.5557853661        9.4144685693       18.5562186609
  C        -1.2776268665        8.6602828207       19.4492141770
  C        -2.0066453907        7.4770732594       18.9318533944
  C        -1.9811742212        7.2006446403       17.5538664423
  H        -3.2871220555        9.0344624793       16.3262654229
  H        -4.9581493524       10.4726969862       15.2319610530
  H         0.1795227996        9.7099223411       16.5963757649
  H        -0.0370059470       10.3430261651       18.8934823699
  H        -1.4939631125        9.0637947097       20.4231327867
  H        -2.6569544290        6.9123254582       19.5541930336
  H        -2.5459200148        6.3594900535       17.1191827533
  C        -0.2451353832        7.1357476861       13.0313456712
  C         0.7936041025        6.3970600657       12.2876471977
  C         1.9758747466        5.9314393924       12.9364709564
  C         2.0078623272        6.0407038784       14.3943630625
  C         0.9497697460        6.5244953276       15.1508455313
  C        -2.2360619967        8.5834750315       13.0436147272
  C        -1.1268872888        8.0145319468       12.3531458938
  C        -0.9491406011        8.3964509282       10.8828882006
  C        -0.0354075390        9.4120857963       10.6883877075
  C         0.1541022346        9.9499853909        9.3756112496
  C        -0.6575131343        9.5547909909        8.3273983468
  C        -1.5057891887        8.4688852686        8.4956200578
  C        -1.6173607015        7.8146715211        9.7297968884
  H        -2.3312698057        6.9959871825        9.7940505320
  H        -2.1676837855        8.1158716255        7.6944454806
  H        -0.4825734257        9.9484272419        7.3003829123
  H         0.8880278355       10.6909954991        9.1177270715
  H         0.4911117528        9.8222428517       11.5292616304
  C        -3.2457741132        9.3653843946       12.4289016604
  C        -4.2775820891        9.9819091678       13.1380867308
  H        -4.9477857163       10.6816745378       12.5885175979
  H        -3.3170164285        9.4220754747       11.3266951401
  C         0.8457299514        6.0510971295       16.6071255942
  C         0.1725367415        4.8434843909       16.8563098547
  C         0.1614560846        4.2457174607       18.1385896255
  C         0.7849782651        4.8541847812       19.2561346726
  C         1.4575652188        6.0296259877       18.9751660295
  C         1.4650549000        6.6507151068       17.7224403503
  H         1.9986240813        7.5897162909       17.5561124208
  H         1.8894168062        6.6671957085       19.7534247228
  H         0.8731875408        4.4110369484       20.2797620674
  H        -0.3577136434        3.3087176126       18.3201242618
  H        -0.3429016350        4.3363204722       16.0339031896
  C         3.1683357243        5.5378253343       15.0737384010
  C         4.1767727415        4.8737823702       14.3928122812
  C         4.1504567628        4.6988993925       12.9899135283
  C         3.1777850772        5.2675028133       12.2554079699
  H         3.2043730057        5.1600428832       11.1934417676
  H         4.9524896334        4.2044845398       12.4579138353
  H         4.9697211026        4.4060975262       14.9417880846
  H         3.2907707783        5.6407817658       16.1519293968
  C         0.6208979666        6.1713138413       10.8365225738
  C        -0.3572776072        5.1919573224       10.4049488387
  C        -0.4075731107        4.7870967585        9.0964297185
  C         0.4165726971        5.3451113789        8.1491359604
  C         1.4763236460        6.2203255142        8.5410143017
  C         1.5569294283        6.6101284821        9.8783538453
  H         2.2946454138        7.3703605445       10.1889020916
  H         2.1930340971        6.4838509309        7.7874750138
  H         0.2115993308        5.1334515765        7.0696038201
  H        -1.2047723841        4.0561745390        8.9238544682
  H        -1.0526405616        4.9228979641       11.1907613204
