140

  C        15.8369732658        0.2867276037        2.6004783391
  C        16.9544511953        0.9145829939        3.1906576169
  C        18.0750247425        1.3239475447        2.3878899562
  C        19.2166854020        1.9502507632        3.0249405777
  C        20.2016072880        2.5545227431        2.2513545491
  C        16.8551953569        1.2079488757        4.6862460839
  C        16.3199847241        2.4038190453        5.1333223404
  C        16.4147498921        2.8479335580        6.4575444043
  C        17.0491322103        1.9859138651        7.4493407747
  C        17.4479615657        0.6955674742        6.9571144552
  C        17.3513537571        0.2942573312        5.6436552953
  H        19.3702703628        2.0804031862        4.0873595104
  H        21.0385549951        3.0404337273        2.7747113900
  H        15.8383879933        3.0885534569        4.4742793798
  H        15.8240725570        3.6840868023        6.7321916602
  H        17.0554444309        2.3138689530        8.4759478907
  H        17.9720834711       -0.0758425735        7.6385704029
  H        17.6782986233       -0.7471500073        5.3562784027
  C        15.7792425149        0.0938523194        1.0900294042
  C        14.7447297897       -0.6561249008        0.4821789696
  C        13.7526563906       -1.2416899343        1.2659519263
  C        13.6874808952       -0.9924375146        2.7073831393
  C        14.7398293820       -0.2782289457        3.3324349869
  C        17.9731748317        1.2525838232        0.9702517284
  C        16.8519001214        0.6673879943        0.3164201938
  C        16.7274118027        0.9403632838       -1.0986966985
  C        15.9913825986        2.0874142364       -1.4761825448
  C        15.9010066845        2.4488959923       -2.8437716688
  C        16.6619773145        1.8116442535       -3.8186323176
  C        17.4712481363        0.7581435184       -3.4367508555
  C        17.4560407858        0.2701712773       -2.1311733955
  H        17.9138200082       -0.6549437372       -1.7956055060
  H        18.1659774150        0.2227431668       -4.1479091613
  H        16.8051510262        2.2097779590       -4.8215665860
  H        15.3331733093        3.2603887900       -3.2546016936
  H        15.4119713607        2.5985637322       -0.6913769883
  C        19.0845187552        1.8010966253        0.2485194002
  C        20.1587110714        2.4836747817        0.8374716952
  H        20.8450811225        2.9848049339        0.1894090736
  H        19.0021810338        1.5760811453       -0.8803346661
  C        14.7222880095       -0.5353335417        4.7815599666
  C        15.2190603423       -1.8004940406        5.1811398300
  C        15.2416594422       -2.2862298987        6.5096648601
  C        14.6678966666       -1.5028416801        7.4673686307
  C        14.1695886032       -0.2245128134        7.1365863538
  C        14.2250351806        0.2542098162        5.7940611517
  H        13.7812234078        1.2737215176        5.5371148164
  H        13.6456764227        0.4424219803        7.9288713494
  H        14.6136465286       -1.8771451018        8.5753412901
  H        15.7040860502       -3.3011701203        6.7219500934
  H        15.4512221437       -2.4486407238        4.4288475992
  C        12.6222103881       -1.4750068199        3.4967435346
  C        11.6766954149       -2.2754495381        2.9368340208
  C        11.7216500225       -2.6980507449        1.5347496281
  C        12.7697090092       -2.2020182089        0.7555875482
  H        12.9175702719       -2.5146253384       -0.2910825068
  H        11.1557717616       -3.5207952564        1.1859461192
  H        11.0055799006       -2.8810897209        3.5178570164
  H        12.5937805091       -1.2453421306        4.5246955907
  C        14.8175675646       -1.1158989314       -0.9178319966
  C        15.6713096297       -2.1769481517       -1.2149816692
  C        15.6700682813       -2.7102114131       -2.5451148240
  C        14.9725993303       -2.0162602781       -3.5492782199
  C        14.1406451073       -0.9539979966       -3.2388413503
  C        14.0082529444       -0.5560367951       -1.9071171511
  H        13.2979952430        0.2569643509       -1.5963015545
  H        13.4784956908       -0.4551453506       -3.9835370191
  H        14.9002160948       -2.3521151865       -4.5430241277
  H        16.3365968863       -3.4845926570       -2.9279541630
  H        16.2922132499       -2.5449390655       -0.4308443211
  C        12.2773351873        7.1277242706        2.3632121936
  C        11.2155123571        7.7506629674        3.0969265523
  C        10.0866850599        8.2938949134        2.4223857642
  C         8.9974231676        8.9650799065        3.0560303763
  C         7.8591460564        9.3517772749        2.3545695020
  C        11.2780184701        8.0790679066        4.5042965936
  C        11.9573086548        9.2580276727        4.9248391497
  C        11.9400484468        9.6697105847        6.2433275039
  C        11.2160888626        8.9713713181        7.1339989037
  C        10.5461592770        7.7957450458        6.7947290394
  C        10.6157070961        7.3355053351        5.4913618264
  H         9.0763894586        9.2627263073        4.1123662674
  H         7.0170074074        9.7351500394        2.9682841770
  H        12.5148995911        9.8383169626        4.1342928903
  H        12.4432548792       10.5887690592        6.6235528351
  H        11.2727689326        9.2539295897        8.1944489018
  H        10.0717417853        7.1213299595        7.4821713344
  H        10.1276734045        6.4137119984        5.1074324191
  C        12.2524709146        7.2197836788        0.9028555762
  C        13.3651971185        6.5780225733        0.2088334336
  C        14.4676761184        6.0406564363        0.9095272311
  C        14.4759669258        6.0422626667        2.3661973643
  C        13.3319266889        6.4417649775        3.0434277023
  C        10.0600960428        8.2763745164        0.9820824028
  C        11.1686978368        7.8185940432        0.1761361768
  C        11.3357647493        8.1920289242       -1.2244086440
  C        12.1529759091        9.2278032945       -1.6167356479
  C        12.0433424183        9.6326893478       -2.9566840358
  C        11.2634640176        8.8748295883       -3.8957279988
  C        10.5866633409        7.7681107961       -3.5067701738
  C        10.6546387306        7.4151235276       -2.1713327216
  H        10.0297326271        6.6178524702       -1.8150112910
  H         9.9791523118        7.3413702988       -4.2969521027
  H        11.1352140039        9.1751906430       -4.9464359286
  H        12.6014941444       10.4938028382       -3.3164912830
  H        12.6984385687        9.7573630441       -0.8679345449
  C         8.9007119633        8.8480234579        0.2874730033
  C         7.7742247779        9.1791672658        0.9746049335
  H         6.8507216855        9.4493656539        0.4386589428
  H         9.0518390925        8.9585171252       -0.7540834718
  C        13.3307928478        6.1323555636        4.5003731049
  C        12.6641386730        4.9917217155        5.0409110449
  C        12.8380618137        4.8581380353        6.4115789078
  C        13.7141078610        5.6463071379        7.1951638400
  C        14.3128634947        6.7965216920        6.6418218551
  C        14.0512090118        7.0566674151        5.2833030600
  H        14.5696475107        7.8522186798        4.8236542095
  H        14.8622322539        7.4888285195        7.2068054900
  H        13.9274463981        5.3422655910        8.2407108193
  H        12.2770598465        4.0576245011        6.8687941318
  H        12.0542743818        4.3665143965        4.3909696478
  C        15.6768005426        5.4690310514        2.9749635504
  C        16.6727985915        4.8373469496        2.2933835204
  C        16.5438557815        4.6839670795        0.8881161836
  C        15.4610185820        5.2691391350        0.2470045000
  H        15.3685744058        5.0631453025       -0.8256328818
  H        17.1497973549        4.0237931939        0.2417029482
  H        17.5737506974        4.4849615037        2.8445258525
  H        15.6988258248        5.5728746817        4.0727597820
  C        13.1856944585        6.1553801765       -1.1740856215
  C        12.2310510764        5.1431259593       -1.4220827142
  C        12.1046959897        4.5101772524       -2.6841961731
  C        12.8324043372        5.0545588944       -3.7515178192
  C        13.8097570968        6.0614516943       -3.5868557998
  C        13.9861005876        6.5367192621       -2.2821535923
  H        14.6890355848        7.3809604626       -2.1544657972
  H        14.2529779550        6.5005392481       -4.4827919653
  H        12.7125285451        4.5987892868       -4.7565701319
  H        11.3419040843        3.7509856235       -2.8596781305
  H        11.5401717108        4.7485078648       -0.6892574883
