140

  C         5.5400660806       -0.5130590656       16.0719896351
  C         6.5326311367        0.2998965550       16.7766801927
  C         7.5458382749        0.8909920150       15.9477645009
  C         8.7399194674        1.4079894584       16.5583567741
  C         9.8260955484        1.9503017160       15.8878285534
  C         6.4912801593        0.6884420859       18.2311217822
  C         5.6680242538        1.7588956377       18.7023675231
  C         5.8538182291        2.0444526704       20.0459810464
  C         6.6297418744        1.3549636453       20.9780769701
  C         7.3613246457        0.2670177991       20.5003969497
  C         7.3356006563        0.0706309909       19.1216430064
  H         8.7697935814        1.3884429487       17.6175380822
  H        10.7143062096        2.3650314539       16.2872895415
  H         5.0559199315        2.4233588678       18.1350243301
  H         5.3302017201        2.8942808588       20.4470782765
  H         6.5182409910        1.5607710335       22.0213485458
  H         7.9314334251       -0.3699441063       21.1102026654
  H         7.8295188570       -0.7975097374       18.6314047236
  C         5.5095606096       -0.5826655642       14.6392773030
  C         4.4180228286       -1.2577444990       13.9355444282
  C         3.3345024848       -1.7216783639       14.6951876016
  C         3.5058695880       -1.8970910342       16.1405120784
  C         4.6065343050       -1.3334303323       16.7930750194
  C         7.4814349417        0.8740648649       14.5314720102
  C         6.4467237134        0.1317361193       13.8693211023
  C         6.2093397570        0.6367662634       12.4787531491
  C         5.4882750179        1.7769632394       12.2223693748
  C         5.1703996174        2.2316306889       10.9644411172
  C         5.8306761887        1.5438981251        9.9065770921
  C         6.7081100332        0.4933204661       10.1613762810
  C         6.8392585535       -0.0381674464       11.4385015524
  H         7.4392657903       -0.8892042312       11.6040741903
  H         7.3109105567        0.0151825686        9.4333441521
  H         5.7394696132        2.0191969217        8.9466517727
  H         4.5737384569        3.0922132131       10.7666345526
  H         4.9568920958        2.2552726864       13.0177873386
  C         8.5824014126        1.4895219877       13.8698082551
  C         9.6563037009        2.0394357957       14.4962318414
  H        10.3533842207        2.6665618948       14.0002108423
  H         8.5864097356        1.4938162600       12.8046121500
  C         4.7807103973       -1.6287167151       18.2494183930
  C         5.4782065076       -2.7214781211       18.7400176705
  C         5.3577065348       -3.0989429026       20.0805016400
  C         4.6417184215       -2.3346735977       20.9712349853
  C         3.8469816706       -1.3117997927       20.4905519606
  C         3.8839185881       -0.9704387654       19.1159884906
  H         3.2287264806       -0.1811580190       18.7925004772
  H         3.1659517411       -0.8778087070       21.1737772039
  H         4.4415122318       -2.6245381857       22.0237956438
  H         5.8895592805       -3.9836067502       20.3432591628
  H         6.1224931636       -3.3175033194       18.0994991831
  C         2.4682701703       -2.5503800626       16.8578237693
  C         1.2641163837       -2.8436506448       16.2923168784
  C         1.0681845450       -2.7430630821       14.8651301446
  C         2.1337149743       -2.2492031909       14.1165014744
  H         1.9584396408       -2.1712200248       13.0353410177
  H         0.1132091818       -3.0645484680       14.4245678461
  H         0.4417144421       -3.2954285871       16.8496846155
  H         2.5041508388       -2.6314025612       18.0093476502
  C         4.3620223466       -1.5897235230       12.5179843721
  C         5.2890817749       -2.5415425467       11.8986203090
  C         5.3014256592       -2.8369863449       10.5275305735
  C         4.3117252792       -2.3006471914        9.6566625622
  C         3.4893413825       -1.3056171878       10.1551812606
  C         3.5639241823       -0.9907238829       11.5678804298
  H         2.8975420064       -0.1805292319       11.9172123931
  H         2.8196544433       -0.6968604733        9.5407330530
  H         4.3122748262       -2.4524545131        8.5910084236
  H         6.1220787352       -3.4809714133       10.1375252198
  H         5.9322211390       -2.9496711692       12.6520950456
  C         1.8589357734        6.9223491810       16.1995027690
  C         0.8540010645        7.6688367901       16.9030772884
  C        -0.2466174344        8.2403415453       16.2093838862
  C        -1.2421844863        9.0171314874       16.9213323162
  C        -2.3897144527        9.4246644764       16.3023361650
  C         1.0128895546        7.9820413664       18.3807961749
  C         1.8962351103        9.0304513288       18.6923538066
  C         1.8897915101        9.5358920775       20.0264812911
  C         0.9865798200        9.0987363608       20.9380419090
  C         0.0698699174        8.1267016664       20.6359935537
  C         0.1697972214        7.5047086276       19.3840141609
  H        -1.0796519216        9.1629086477       17.9724294571
  H        -3.2050868850        9.9125095568       16.9033640787
  H         2.5461525676        9.4477807212       17.9265778609
  H         2.5898501036       10.3079936831       20.3419756573
  H         0.9841381467        9.5647099318       21.9164558318
  H        -0.6493113268        7.8372105275       21.4168438224
  H        -0.5364589225        6.6613067770       19.2393469825
  C         1.8574041720        6.9772579066       14.6892530272
  C         2.8360672639        6.3260905527       13.9899363648
  C         3.9640704802        5.8384191810       14.6326427638
  C         3.9777254081        5.8116156559       16.0738309686
  C         2.9216209251        6.2551808599       16.8298502958
  C        -0.3016743893        8.2120214186       14.7729351437
  C         0.7688318844        7.7149264772       14.0413791816
  C         0.8702405083        8.0627592827       12.6231423463
  C         1.7778017910        9.0387976072       12.1541904310
  C         1.6852754205        9.6544346989       10.8796633501
  C         0.7220599417        9.1623878940       10.0463811163
  C        -0.0976057863        8.1297023747       10.3830506894
  C        -0.0829379965        7.5699808097       11.6738322169
  H        -0.8165969961        6.8180995953       12.0218895566
  H        -0.8024812391        7.8224110143        9.6086716373
  H         0.5816847661        9.6432991606        9.0617527845
  H         2.2963093466       10.4733974307       10.6240001319
  H         2.4517338153        9.4848149316       12.8868635920
  C        -1.4196115869        8.8367983636       14.1777467967
  C        -2.4951819459        9.3034645954       14.8596728604
  H        -3.3256828555        9.6840442825       14.3166851932
  H        -1.2654231838        8.9343863316       13.1094827357
  C         2.8771968087        5.7842459941       18.2463414127
  C         1.9724781540        4.8031216764       18.5970019000
  C         2.0539755504        4.1694015047       19.8450391099
  C         2.9611915982        4.6101780097       20.8789685224
  C         3.6965249272        5.7793941317       20.6276075867
  C         3.6685097512        6.2795574850       19.3301516968
  H         4.1434046877        7.2429365764       19.1307356145
  H         4.4370460697        6.0891576374       21.3770725796
  H         3.0131860299        4.2004810915       21.9325103930
  H         1.5782692589        3.2080215187       19.9851720114
  H         1.3121113951        4.3179767325       17.8220177337
  C         5.1070240926        5.1489416696       16.7088398742
  C         5.9893817838        4.3818207328       16.0135778455
  C         5.8831792579        4.3825037218       14.5907534370
  C         4.9685590627        5.2131891137       13.9745432702
  H         4.9471891305        5.1732332391       12.9266039047
  H         6.5248899007        3.6345564808       14.0592490134
  H         6.8148000390        3.9131205051       16.5193882118
  H         5.2298537159        5.2721594889       17.8111837704
  C         2.6433938045        5.9165430119       12.5518866236
  C         1.6308622681        5.0536029178       12.1804562004
  C         1.4747671515        4.5071669958       10.8912056523
  C         2.3368246339        4.9120656329        9.8435591381
  C         3.2811085264        5.9025569437       10.1733229172
  C         3.4026030003        6.4481808839       11.5065816158
  H         4.2315308714        7.1203844526       11.7819802163
  H         4.0321460986        6.1347903162        9.4009283107
  H         2.2556738717        4.3716787619        8.8926643674
  H         0.7292992736        3.7470194444       10.7137124122
  H         0.9344356984        4.7242845879       12.8968815262
