140

  C         3.2464423452        0.0418189403       14.7161649732
  C         4.1643125533        0.8386562188       15.4348574866
  C         5.2551944903        1.4686140361       14.7601002757
  C         6.2349874013        2.2480897736       15.4732020374
  C         7.1997338249        2.8673024493       14.7911749243
  C         4.0193954600        1.1718151706       16.9401792176
  C         3.0927832422        2.1856780424       17.2100013109
  C         3.2465558205        2.8861042887       18.3215987534
  C         4.0650853207        2.4427471607       19.3267608369
  C         4.9251927952        1.3484698530       19.1414594092
  C         4.9654813001        0.7814057695       17.8790362969
  H         6.2171253724        2.2872826880       16.5262097919
  H         8.0417350541        3.4384942917       15.2428014617
  H         2.3491186989        2.5164061805       16.4796457233
  H         2.4757115764        3.6587182377       18.5242317973
  H         4.1218487969        2.9496020312       20.2981365964
  H         5.7111303570        1.0635662210       19.8282338977
  H         5.6534707193       -0.0523129598       17.7500000079
  C         3.2752480489       -0.0151384440       13.2212524968
  C         2.2806697408       -0.7125176271       12.4918775596
  C         1.0957183532       -1.1733970859       13.1339977007
  C         1.0710024221       -1.1933106391       14.6054316731
  C         2.2366887210       -0.7643633020       15.2971750411
  C         5.2917329949        1.4484588871       13.3823404479
  C         4.3283989889        0.7609967637       12.5764754646
  C         4.3907737467        1.0045457685       11.0216689897
  C         3.6692636639        2.0314862358       10.5617321981
  C         3.7292690803        2.2634749469        9.1597773768
  C         4.4458025610        1.4464778455        8.2849244927
  C         5.2379956167        0.3968886989        8.8528951180
  C         5.2019575632        0.2026065737       10.2030376560
  H         5.7871269768       -0.5692537203       10.6394973261
  H         5.8202128119       -0.2838732242        8.2478566671
  H         4.7446691818        1.7883907686        7.2715235850
  H         3.2663160180        3.1954138560        8.8448431437
  H         3.1276543694        2.7045992146       11.2312601702
  C         6.3693492754        2.0710334847       12.7485315868
  C         7.3882744002        2.6964721368       13.3843821341
  H         8.2443253847        3.1667649095       12.8734081908
  H         6.4452608689        2.1617386540       11.6568997328
  C         2.3255905458       -1.0916069085       16.7640896619
  C         3.1975553139       -2.0982488783       17.2256920604
  C         3.1262675205       -2.5189595477       18.6036926315
  C         2.3046901046       -1.8857302077       19.4447062279
  C         1.5383062665       -0.7987283475       18.9764697485
  C         1.4603137118       -0.4557637226       17.6348696350
  H         0.7709387726        0.2940469483       17.2502056113
  H         0.9280539924       -0.2128757827       19.6818627418
  H         2.2342148749       -2.0800171056       20.5598940800
  H         3.8161605404       -3.2695504336       18.9764865305
  H         3.9085873488       -2.5030036153       16.5249909808
  C         0.0136124497       -1.8794330825       15.2535667812
  C        -1.1294212900       -2.2864050265       14.5740383727
  C        -1.2721519207       -2.0419298495       13.1242249608
  C        -0.1050662080       -1.7036696485       12.4473210920
  H        -0.1368463702       -1.7164533387       11.3861828008
  H        -2.2344997455       -2.3486325046       12.6324120135
  H        -1.9535400031       -2.8730707579       14.9610704563
  H         0.0496200828       -2.2040125208       16.3099034592
  C         2.2841825098       -1.0719861747       11.0482280187
  C         2.8093250118       -2.3185265053       10.6524502935
  C         2.5076961215       -2.8976576088        9.4188989694
  C         1.8557922633       -2.0675860393        8.4777273034
  C         1.3459037759       -0.7824667086        8.8602501433
  C         1.4249914450       -0.3746491518       10.1806991854
  H         1.0405630444        0.6157033688       10.4537050540
  H         0.7495265445       -0.2217630202        8.1101043926
  H         1.5437419859       -2.3586354379        7.5144578474
  H         2.8569555442       -3.9203862322        9.2203777465
  H         3.5027495322       -2.8429819384       11.2990342226
  C        -0.5402131597        7.2439604052       14.9065439271
  C        -1.5592195916        7.9489073362       15.6226069682
  C        -2.6599169139        8.6119504946       14.9376483440
  C        -3.8712165230        9.1628126109       15.5655738005
  C        -4.8212841277        9.8518351900       14.8180076640
  C        -1.4253778987        8.1628094374       17.0417135102
  C        -0.5953816562        9.1800223963       17.5417438501
  C        -0.5664232480        9.4755187528       18.9114516562
  C        -1.5680913074        8.8700495453       19.7428666675
  C        -2.4085194414        7.9413367329       19.1542644527
  C        -2.3640697601        7.5298202635       17.8627209800
  H        -3.9760393264        9.1149066841       16.6402520850
  H        -5.6234608257       10.2931120599       15.3712772546
  H         0.1401498034        9.6788541426       16.9286370171
  H         0.1819712228       10.1463998281       19.3407238317
  H        -1.6663164866        9.1314203608       20.7927347500
  H        -3.2692636224        7.5782468747       19.7262137871
  H        -3.0050675328        6.7278942491       17.5384365692
  C        -0.5336396415        7.2706136571       13.4435493826
  C         0.5595354237        6.6871409304       12.7098343154
  C         1.6595538130        6.1702256967       13.3924817935
  C         1.6269645777        6.0125107547       14.7792365204
  C         0.5053000439        6.4374138876       15.5028855536
  C        -2.6264719535        8.6203974440       13.4907413865
  C        -1.5571353013        7.9338324966       12.7580281185
  C        -1.5159891584        8.3406337490       11.3006988940
  C        -0.7504806404        9.5304690947       11.0737100441
  C        -0.9114506526       10.1817525608        9.8716083800
  C        -1.7226167484        9.6183973882        8.8864474402
  C        -2.3630014846        8.3758659235        9.0477002600
  C        -2.3288077029        7.8183502904       10.2969696657
  H        -2.8793541098        6.9095420379       10.5182374017
  H        -2.9374801366        7.9754447529        8.1911015670
  H        -1.7435648322       10.0356324912        7.8792466804
  H        -0.3422301445       11.0830181424        9.5937128008
  H        -0.0198941382        9.7733936985       11.8614535652
  C        -3.7264090572        9.3315860131       12.7555833921
  C        -4.7780414436        9.9120284660       13.4352922418
  H        -5.5254314651       10.5324716635       12.9919992256
  H        -3.7645230244        9.2513617430       11.6767105807
  C         0.3158637241        6.0683619698       16.9147503566
  C        -0.6103059736        5.0316301988       17.3234772241
  C        -0.8826118636        4.7162409700       18.6437909372
  C        -0.0119933812        5.1808156237       19.6250988630
  C         1.0481494625        6.0553761756       19.2758118586
  C         1.1663774059        6.4851052414       17.9223848128
  H         1.9383140971        7.2154928694       17.6222044683
  H         1.7479213890        6.4831867436       19.9958912554
  H        -0.2051207427        4.9895759481       20.6982896833
  H        -1.6917158110        3.9591756079       18.7611031287
  H        -1.3140716496        4.7352087716       16.5621815883
  C         2.7469285928        5.4260614033       15.4162864137
  C         3.7326752816        4.7999881644       14.7194737564
  C         3.6142019514        4.7371390469       13.3005674519
  C         2.6308585778        5.4739189144       12.6690095865
  H         2.5926700602        5.5842171226       11.5743184504
  H         4.3241974658        4.1357361750       12.7244563355
  H         4.6127709705        4.3359864260       15.1746603728
  H         2.7396931941        5.4621546068       16.4885416913
  C         0.4677279642        6.5090345480       11.2213828861
  C        -0.3206857234        5.4896959192       10.7444055878
  C        -0.1927891071        4.9895108194        9.4268336842
  C         0.8122360548        5.5402631040        8.6069794125
  C         1.7112930808        6.4667184418        9.0881093126
  C         1.4998152491        6.9989936067       10.3354744958
  H         2.1885374475        7.6505596026       10.8441454640
  H         2.4952405367        6.8574826330        8.4415814820
  H         0.8688748722        5.1139997240        7.6131262874
  H        -0.8696301546        4.2659612638        9.0101540100
  H        -1.0494672586        5.1006754247       11.4088809499
