140

  C        15.2323046845       -1.1751001476        0.3358763855
  C        16.1862760905       -0.4312562308        1.0358133559
  C        17.2931701356        0.0448771992        0.3700143297
  C        18.3357716282        0.7725509687        1.0645613037
  C        19.4173482304        1.3438290828        0.4000537289
  C        16.1852821097       -0.0430765669        2.5022146489
  C        15.4843686454        1.1280539188        2.9411301628
  C        15.5667071939        1.5439540167        4.2498609521
  C        16.4270144658        0.8680294324        5.1618206601
  C        17.1317099515       -0.2149597482        4.7384241399
  C        17.0810992343       -0.6558734786        3.4245402997
  H        18.2011160062        0.9349796024        2.1297672104
  H        20.1323404199        1.9440561869        0.9049770279
  H        14.7342156802        1.5890743055        2.2402736430
  H        14.9653846709        2.4078143616        4.5859098314
  H        16.5213189581        1.1189990876        6.2266467868
  H        17.8123650090       -0.6857977840        5.4455861302
  H        17.6394149538       -1.5680734295        3.1125247520
  C        15.2280584434       -1.2620154659       -1.1256324188
  C        14.1971328834       -1.9566592025       -1.8448295359
  C        13.1912509364       -2.5418567423       -1.1271945674
  C        13.2859515622       -2.5708826433        0.3071445824
  C        14.3163314809       -2.0090387230        1.0584467457
  C        17.3199580856       -0.0209986947       -1.0393699152
  C        16.1886313829       -0.5014946685       -1.8067490012
  C        16.1639561701       -0.1693561408       -3.2475667445
  C        15.4359816069        0.9200558325       -3.6767123821
  C        15.4550997819        1.3493022933       -5.0135396121
  C        16.2127233117        0.6477916248       -5.9631652246
  C        17.0397333406       -0.4032112678       -5.5275709943
  C        17.0931533704       -0.7274855314       -4.1600897418
  H        17.7103534314       -1.5416203861       -3.9459326812
  H        17.6693766948       -0.8711740125       -6.2761427712
  H        16.1955588824        0.9267212546       -7.0093890437
  H        14.8567787027        2.2215552616       -5.2979351812
  H        14.8487637969        1.4682239970       -2.9454819845
  C        18.4648046252        0.5886169554       -1.6681436036
  C        19.5384536511        1.1237461649       -0.9992959425
  H        20.2683925701        1.5959841815       -1.6758816245
  H        18.5006100083        0.6734845186       -2.7060681650
  C        14.4946245184       -2.3809458791        2.5126300501
  C        15.2852635716       -3.4978575407        2.7772460212
  C        15.1382741971       -4.0520145894        4.1333003140
  C        14.2869330551       -3.4664749769        5.0981206025
  C        13.5665471663       -2.3165013589        4.7888901196
  C        13.7860844860       -1.6516241421        3.4671431271
  H        13.1131877024       -0.7649934119        3.1831345593
  H        13.0858184353       -1.7224801975        5.5415702662
  H        14.1649840040       -3.9819677524        6.0738841938
  H        15.7436731711       -4.8876006506        4.3305432855
  H        15.9834370710       -3.9859977296        2.1460275848
  C        12.1781200120       -3.1856767713        0.9441403377
  C        11.1106405075       -3.7149307254        0.3532535569
  C        11.0179141675       -3.7029487318       -1.0804741477
  C        12.0773462960       -3.1706303886       -1.7452292321
  H        12.0745760760       -3.3000515866       -2.8354404351
  H        10.2213078507       -4.1543943725       -1.6309722409
  H        10.2423920974       -4.1678283280        0.9646506173
  H        12.2133802102       -3.1715741482        2.0476120652
  C        14.1881027915       -2.1400936150       -3.3384792661
  C        15.2121562021       -3.0932480050       -3.7112190378
  C        15.3101851096       -3.6321523234       -4.9639495245
  C        14.3656783846       -3.2500598273       -5.9599222016
  C        13.4723052399       -2.2253315697       -5.5993536860
  C        13.3389929656       -1.6323610232       -4.3239019943
  H        12.6123868089       -0.8754448011       -4.1071143221
  H        12.7764124348       -1.8786905795       -6.3226613294
  H        14.4770719463       -3.4618895006       -7.0717097371
  H        15.9648749710       -4.5134199257       -5.2281254672
  H        15.8570879980       -3.3903867166       -2.8502140784
  C        11.8173176634        6.2945740341        0.4992985534
  C        10.6694748410        6.8090614753        1.2055504686
  C         9.5341852803        7.1863555700        0.4654955457
  C         8.2891531785        7.5066423768        1.0890444489
  C         7.2097850765        7.7745767195        0.2906475813
  C        10.5885519933        7.0216732974        2.6173381632
  C        11.2629128914        8.1273020806        3.0890919110
  C        11.1073318279        8.4455364599        4.4826504027
  C        10.2336277783        7.7691890218        5.3084589945
  C         9.6026584192        6.6210370436        4.7988219968
  C         9.8240033687        6.2105674739        3.5384854375
  H         8.1563196006        7.3143878821        2.1373786251
  H         6.2138045959        7.9009956336        0.7311774074
  H        12.0261197597        8.7387457056        2.5292242707
  H        11.6212878052        9.4291798462        4.9373371452
  H        10.1044639120        8.0623159027        6.4334033847
  H         9.0531163143        5.9312399910        5.3144124273
  H         9.3101039940        5.3312139637        3.1092139038
  C        11.9118258310        6.3447925445       -1.0295856649
  C        12.9772395596        5.7421578863       -1.6273724625
  C        14.0275960546        5.0624113657       -0.9868177427
  C        13.9872986846        4.9988119648        0.4753869973
  C        12.9376986573        5.6707499236        1.1510326828
  C         9.6020044132        7.2533408209       -0.9969456872
  C        10.7392254007        6.9130496176       -1.7121387778
  C        10.8436292875        7.3557253807       -3.1804999773
  C        11.7548186375        8.3589634695       -3.5697067563
  C        11.8231838636        8.8975739336       -4.8168360096
  C        10.9634492129        8.3581394667       -5.8191710449
  C        10.0113631961        7.3667713223       -5.4674295901
  C         9.9829130824        6.8280623185       -4.1630861936
  H         9.2811775278        5.9912345125       -3.8599186955
  H         9.4002386165        6.9972333583       -6.2850470522
  H        10.9764447764        8.7182537703       -6.8856484258
  H        12.5842426144        9.6236437056       -5.1820590929
  H        12.5200904901        8.6970404452       -2.7752681786
  C         8.5387485344        7.8056279758       -1.7351379255
  C         7.3120554039        7.9910033048       -1.1159602573
  H         6.3605554829        7.9994691305       -1.6322422311
  H         8.5238418326        7.7914838005       -2.7940955465
  C        12.7746925671        5.1883744899        2.5977231772
  C        12.0254986335        4.0717599118        2.8726388437
  C        11.9886982649        3.4454214207        4.1328997707
  C        12.8786200681        3.8754758090        5.1523430543
  C        13.6887432851        5.0014094384        4.8973650660
  C        13.5283997561        5.7119409730        3.6509564177
  H        14.0885427933        6.5738297784        3.4802815146
  H        14.6441554998        5.1816509568        5.4675246296
  H        13.0876591553        3.1863130619        5.9162181705
  H        11.2778580927        2.5820652377        4.4423130957
  H        11.4939732150        3.5600871201        2.0765904367
  C        14.9859716268        4.2271091766        1.1847713962
  C        15.9325244663        3.5351564771        0.4743632742
  C        15.9377764442        3.5500440034       -0.9378096755
  C        14.9849348369        4.2683864668       -1.6113178528
  H        15.0217731447        4.3030927179       -2.6882937594
  H        16.7183093927        3.0448216884       -1.5005244602
  H        16.7986638981        3.0064464830        0.9724061203
  H        14.9176097106        4.2891915838        2.2032856931
  C        12.7900664309        5.2613957498       -3.0640727473
  C        11.9307330611        4.1886628503       -3.2812892942
  C        11.6708171143        3.6716844691       -4.5297546074
  C        12.5107258677        4.0625041206       -5.6241631175
  C        13.5143149056        5.0795453677       -5.3912759877
  C        13.6586652864        5.6216917518       -4.0946345893
  H        14.4089593890        6.3812272758       -3.9770104083
  H        14.1976771826        5.3918643232       -6.1524290412
  H        12.3117091238        3.6569374719       -6.6430122584
  H        10.9746072489        2.9294620794       -4.7179051838
  H        11.3205496081        3.8777174607       -2.4167905020
