140

  C         4.1438868235       -0.5611609456       14.0473184312
  C         5.1178322093        0.1787643573       14.7438474374
  C         6.1507683310        0.7979756596       14.0178665761
  C         7.2446403839        1.4021051286       14.7062824878
  C         8.3358230218        1.8011807861       13.9948947335
  C         5.1763147961        0.2683442537       16.2647967126
  C         4.4732859934        1.3922074925       16.7187632304
  C         4.6805730133        1.7867809559       18.0497612025
  C         5.6038138987        1.1580141593       18.8473502551
  C         6.3011821797       -0.0015439772       18.4012282210
  C         6.0662874743       -0.4124426361       17.0774923805
  H         7.3883842367        1.5395064855       15.7773804197
  H         9.1548955521        2.2810397585       14.5870979489
  H         3.8911912196        1.9750308405       16.0546815379
  H         4.2064837744        2.6424983379       18.4998181046
  H         5.6522140585        1.5249100371       19.9190703649
  H         7.0542275221       -0.4420053763       19.1796917207
  H         6.4954044272       -1.3702248514       16.7305492374
  C         4.0784432312       -0.4031865320       12.5634145586
  C         3.1974090826       -1.1991016257       11.8428969490
  C         2.2086602549       -1.9155895901       12.5484838440
  C         2.2522626137       -2.0079621313       13.9912265729
  C         3.2497743905       -1.4355820040       14.7429453863
  C         6.2208803956        0.7544310689       12.5259802478
  C         5.0363919327        0.3661184876       11.8496858311
  C         4.9035986242        0.7094281923       10.3513580412
  C         4.0440028725        1.7455157344        9.9522037456
  C         3.9111240078        2.0847642770        8.6305611542
  C         4.6701618470        1.4572341241        7.6548005340
  C         5.4826732795        0.4134150229        8.0361305231
  C         5.7369227757        0.0983845379        9.3884331840
  H         6.3839670513       -0.7065720289        9.7581723338
  H         5.9692780933       -0.1471232741        7.2232509153
  H         4.6655110165        1.6390876006        6.5718039665
  H         3.3037770721        2.9091311408        8.3574556198
  H         3.4928095049        2.3795143457       10.6546705539
  C         7.3859456811        1.4288352442       11.8191131489
  C         8.4408203559        1.8142214238       12.6022412552
  H         9.3418675391        2.1743246080       12.0643429699
  H         7.4933953400        1.4905345190       10.7515844453
  C         3.3168351574       -1.8210091009       16.2066150013
  C         4.1810299028       -2.8600114890       16.5373826844
  C         4.2578940698       -3.3455277810       17.8448756972
  C         3.3280531450       -2.8670427365       18.8269146318
  C         2.4115499671       -1.8445877026       18.5063082035
  C         2.3733118776       -1.3711216606       17.1642891396
  H         1.6481100096       -0.5731030036       16.7854956828
  H         1.7254520422       -1.6048469470       19.3498890805
  H         3.5570841401       -3.0894086718       19.8765576371
  H         4.9965731949       -4.0513909656       18.1122105102
  H         4.8754469306       -3.2512908212       15.7740422231
  C         1.1437585478       -2.7584980606       14.5986301940
  C         0.0835694498       -3.2242156585       13.9095086584
  C         0.1318757626       -3.2508519080       12.4735984215
  C         1.2516879418       -2.7055730976       11.8743997800
  H         1.3920489367       -2.8539166352       10.8147286833
  H        -0.6145928562       -3.7080595518       11.8048928016
  H        -0.7980851431       -3.6119490899       14.3446357141
  H         1.0857060462       -2.8193275322       15.6804173030
  C         3.1964420768       -1.5149779940       10.3950309624
  C         3.9981910368       -2.5834696691        9.9344213832
  C         3.9796862371       -2.9876225700        8.6374011941
  C         3.1209413825       -2.3436006741        7.6869333863
  C         2.4407018978       -1.1839952286        8.1040616879
  C         2.4361659939       -0.8014964471        9.4343859341
  H         1.9054388029        0.1068628726        9.7065115889
  H         1.8161240238       -0.7848166387        7.2966649302
  H         3.1053407778       -2.5842238826        6.6319889485
  H         4.5136561799       -3.8427951707        8.2248383333
  H         4.5888417493       -3.2824508638       10.5738459622
  C         0.7447974211        6.4527413686       14.3492547299
  C        -0.3190544082        7.1616163374       14.9616679053
  C        -1.3756065778        7.7909811692       14.2599394019
  C        -2.4588782673        8.4789382582       14.9325712237
  C        -3.3815071015        9.1342178067       14.1801154647
  C        -0.2516420575        7.4325524063       16.4162639133
  C         0.5833421533        8.4976528681       16.8667284069
  C         0.6003980903        8.8547459255       18.2298707332
  C        -0.2367790385        8.2542826493       19.1194912947
  C        -1.1418074508        7.2512638066       18.7223887274
  C        -1.1668077445        6.8595571642       17.3862906424
  H        -2.5605009036        8.4605721194       16.0287909236
  H        -4.1715400807        9.6467228130       14.7683818029
  H         1.3837599200        9.0412225360       16.2949568791
  H         1.2352855173        9.6782354165       18.5624848984
  H        -0.3477925778        8.5955359266       20.1393472205
  H        -1.7423070041        6.7456917297       19.5123007297
  H        -1.7162179335        5.9519539798       17.1456625380
  C         0.6891336749        6.3693896775       12.8520490675
  C         1.7120310973        5.6199444640       12.1016914623
  C         2.7982529594        5.1353180908       12.7158225915
  C         2.8417601308        5.1550683585       14.1684226926
  C         1.8077351108        5.6690978596       14.9685895172
  C        -1.3988172735        7.7487409622       12.8413141387
  C        -0.3691557055        7.0542468605       12.1729464017
  C        -0.3025639633        7.3602868590       10.7202754689
  C         0.3663477136        8.4993213560       10.3947707456
  C         0.3864876284        9.0296366862        9.0664582507
  C        -0.3156717716        8.4016392410        8.0701643111
  C        -0.9908656164        7.2183659487        8.4162488816
  C        -0.9508134348        6.6653448818        9.7080660813
  H        -1.3535343221        5.6804420703        9.8017581872
  H        -1.5784165972        6.6827506418        7.6578137749
  H        -0.3310189933        8.7857812939        7.0484545827
  H         1.0450008484        9.9011223229        8.8491365820
  H         0.8673904009        9.0206520425       11.1928061476
  C        -2.3901431446        8.4889706637       12.1071476123
  C        -3.3715336787        9.2367736595       12.7440889346
  H        -4.1999944916        9.7117277333       12.1835993309
  H        -2.4164668537        8.5704604953       11.0192175787
  C         1.8930116195        5.3778612086       16.4102154418
  C         1.2118989445        4.2078387783       16.8218463664
  C         1.4657699736        3.7150816152       18.0801429067
  C         2.3310004396        4.3334590910       18.9617744986
  C         3.0371994214        5.4547883596       18.5679720430
  C         2.8620693879        5.9530413495       17.2591879082
  H         3.4364379237        6.8051798548       16.9083650967
  H         3.9239608307        5.8125769485       19.0401505947
  H         2.3976110555        3.8816512731       19.9767199882
  H         0.9301277284        2.8286763088       18.4446384468
  H         0.4897024950        3.6485903112       16.1449649971
  C         3.9013657848        4.4806343212       14.8358352954
  C         4.9909004788        4.0918956203       14.1726995051
  C         5.0184270206        4.1413774946       12.7424676939
  C         3.9385086629        4.5838655623       12.0552498072
  H         3.9483843365        4.6436458647       10.9566534550
  H         5.8613513446        3.6711002128       12.3107836421
  H         5.8391108275        3.7174928992       14.8179316462
  H         3.8686483521        4.6341282181       15.9021003171
  C         1.5995520002        5.2923513994       10.5871213939
  C         0.8174602796        4.1813977901       10.2680730252
  C         0.8097653421        3.6961876898        8.9601428168
  C         1.5091031235        4.3442936601        7.9516840988
  C         2.1996923922        5.4815107494        8.2539969123
  C         2.3111019462        5.9609594354        9.5802714364
  H         2.9341373073        6.8621604630        9.7414320681
  H         2.7993041636        5.9736440768        7.4715601419
  H         1.5072674491        3.9428063844        6.9302587694
  H         0.3026442831        2.7421883587        8.7838195279
  H         0.2037080683        3.7100459141       11.0203185749
