140

  C        15.3278667562       -0.9688405870        0.3338824863
  C        16.4385399891       -0.3460361529        1.0144199286
  C        17.5068965218        0.2003209279        0.3259891114
  C        18.6525824863        0.8241195155        0.9212316585
  C        19.7114915010        1.2883665837        0.1191077226
  C        16.2869962217        0.0849742430        2.4341135154
  C        15.4049095572        1.1607929666        2.5751805732
  C        15.2463378554        1.8224543446        3.7935274395
  C        15.9886123382        1.4022960030        4.9051795544
  C        16.9355596473        0.3703630200        4.7315817332
  C        17.0374495273       -0.3258968811        3.5609418684
  H        18.6864740364        0.9192405661        1.9728322275
  H        20.6315507085        1.7254014556        0.4330291369
  H        14.7038619840        1.3564687883        1.6963517936
  H        14.4199477712        2.5543001007        3.9283188640
  H        15.6894118152        1.8534800871        5.8508785700
  H        17.5651734932       -0.0181345530        5.5462751043
  H        17.7251356634       -1.1866697128        3.4425011076
  C        15.3654580440       -1.1141982494       -1.0980604995
  C        14.2887919602       -1.8607945197       -1.7572877772
  C        13.2218872281       -2.4178026496       -1.0396906189
  C        13.1535989199       -2.2848935421        0.3663738502
  C        14.2750531737       -1.6153469865        1.0122073761
  C        17.4616004721        0.2165263438       -1.1592029451
  C        16.3687569396       -0.3945132695       -1.8255738741
  C        16.2219060045       -0.0040897169       -3.2992387981
  C        15.4269975288        1.1259492828       -3.6177941560
  C        15.3659075988        1.6764526276       -4.9278787442
  C        16.2358215939        1.2049061113       -5.9195468820
  C        16.9981870121        0.0647588512       -5.5949580568
  C        17.0314598995       -0.5059529745       -4.3168104914
  H        17.7099681868       -1.3297199816       -4.1377942352
  H        17.7192036812       -0.3309807323       -6.2818851048
  H        16.0258144853        1.5317808442       -6.9169333616
  H        14.6424214710        2.4412984497       -5.2159674514
  H        14.8186262118        1.6219367684       -2.8601859268
  C        18.5944902319        0.6497142473       -1.9458289977
  C        19.6741964929        1.1347383238       -1.2780968769
  H        20.6024700220        1.3780468984       -1.8049518331
  H        18.6331991355        0.5663273783       -2.9738770690
  C        14.4076879805       -1.9704018427        2.5324982219
  C        15.2520963512       -3.0714746616        2.8353183584
  C        15.2595305126       -3.6254485728        4.1766121729
  C        14.4308125470       -3.0790959351        5.1642424288
  C        13.4640268913       -2.0573777693        4.7416183323
  C        13.4166056385       -1.4876516766        3.3996966586
  H        12.6238390783       -0.7698660522        3.1412369823
  H        12.6388621273       -1.7730937123        5.4077119191
  H        14.3569109353       -3.3456286563        6.2332224478
  H        15.9862592241       -4.4498051165        4.4100713166
  H        15.8166822228       -3.4952726557        1.9971525938
  C        12.0972162077       -2.9708124048        1.1028944821
  C        11.2083368972       -3.7492813700        0.3742411051
  C        11.2985789214       -3.8311016116       -1.0061652073
  C        12.1281200101       -3.0841917197       -1.7891909142
  H        12.2048274790       -3.2169991582       -2.8340479710
  H        10.5787405787       -4.4625861307       -1.4881400788
  H        10.3837832191       -4.2382259659        0.7804162833
  H        12.0464211495       -2.9609575108        2.1582960562
  C        14.3510814866       -2.1713379701       -3.2551953249
  C        15.1419503585       -3.2024727372       -3.7937715973
  C        15.2219005576       -3.4990418053       -5.1858120469
  C        14.3708433140       -2.7981589292       -6.0624603504
  C        13.5349279146       -1.7478715372       -5.5063704137
  C        13.5620416766       -1.4158544929       -4.1146174248
  H        12.9887732653       -0.5767495189       -3.8092208574
  H        12.9472812091       -1.2991457835       -6.2615705212
  H        14.3585961271       -2.9116847632       -7.1401820248
  H        15.8426250096       -4.2879266022       -5.5150219104
  H        15.8071437544       -3.6830190364       -3.0482168589
  C        11.6216815760        6.2936961342        0.2303075664
  C        10.7799338596        7.1510403165        0.9844219204
  C         9.6140625758        7.6324758888        0.3287923052
  C         8.5717864252        8.3561135088        1.0354961489
  C         7.5049708348        8.8811432662        0.4660448265
  C        10.8906030959        7.3788418265        2.4775061579
  C        11.6801639820        8.4542055723        2.9125444201
  C        11.5052858095        9.0257270097        4.1483099137
  C        10.7616439579        8.3663020647        5.1359279573
  C         9.9541841743        7.2042668850        4.7259614725
  C        10.0235740575        6.7925537124        3.3677772302
  H         8.6953619283        8.4773082143        2.0975458045
  H         6.8230423431        9.5020979699        1.0749103390
  H        12.2532566509        8.9638108212        2.1101718365
  H        12.1363245364        9.9210627894        4.5119133136
  H        10.6130030146        8.8936401860        6.0613278657
  H         9.1584112172        6.8335577309        5.4097627475
  H         9.2531823765        6.0557556337        3.1225765374
  C        11.5096204423        6.2238211000       -1.2247916438
  C        12.5383883899        5.4906357936       -1.9647547057
  C        13.6842127792        5.0025861213       -1.2574993357
  C        13.7541800198        4.9430010253        0.1520737029
  C        12.7658418871        5.6104786746        0.9274469544
  C         9.5280664316        7.5822180996       -1.1023375389
  C        10.4727719195        6.9041980828       -1.8791277291
  C        10.4937993594        7.2286842699       -3.3315640173
  C        11.3592550105        8.2869594874       -3.7499414141
  C        11.2707855393        8.7135966870       -5.0695811723
  C        10.4299962241        8.1187853792       -6.0276487288
  C         9.6885558008        7.0183801008       -5.5792805411
  C         9.7327807326        6.6335498753       -4.2495113993
  H         9.1059228421        5.7848629675       -3.9253096478
  H         9.1058471262        6.4418880598       -6.3173603281
  H        10.5073253129        8.5036507675       -7.0237353057
  H        11.8823853891        9.5214750332       -5.4716856571
  H        11.9867693644        8.8508661494       -3.0528779010
  C         8.3962710041        8.2236863100       -1.6865638440
  C         7.4302621660        8.8408412183       -0.9737779178
  H         6.5246083486        9.1871099708       -1.4965519906
  H         8.2848084406        8.2432417699       -2.7568457426
  C        12.7851753645        5.2368347235        2.3660614103
  C        11.9818045251        4.1719396295        2.8465743906
  C        11.9944170750        3.8739807296        4.2570384109
  C        12.8713934059        4.5164822872        5.1136162417
  C        13.7164530622        5.4909919095        4.6313581696
  C        13.6960709669        5.8403463232        3.2601672723
  H        14.3312162136        6.6611256987        2.8398303500
  H        14.3190416631        6.0810720226        5.3289285861
  H        12.7949924613        4.2354065926        6.1910119191
  H        11.4394145541        2.9978040127        4.5725531590
  H        11.2278178795        3.6429153059        2.2524274528
  C        14.8134287833        4.1682605842        0.8498848937
  C        15.8500505253        3.6397931952        0.1916357108
  C        15.8177219936        3.7552631505       -1.2623305184
  C        14.7490195671        4.3497180883       -1.9249232970
  H        14.8198588621        4.3608071193       -2.9983315697
  H        16.6679861338        3.3767932677       -1.7860064770
  H        16.7406399069        3.2503082743        0.6438140960
  H        14.7949010393        4.1013061345        1.9894887721
  C        12.4792427535        5.1446427123       -3.4163158624
  C        11.9118417626        3.9098273225       -3.7251506694
  C        11.9584036740        3.3251393294       -5.0245233104
  C        12.6857533813        4.1005874071       -5.9993314799
  C        13.3289349607        5.2229289769       -5.6392834819
  C        13.1823020645        5.8357081172       -4.4005681691
  H        13.5904339778        6.8076158537       -4.1536065875
  H        13.8530301283        5.7818457848       -6.5016723425
  H        12.8222924798        3.7327783896       -7.0033632714
  H        11.6428530650        2.2819702356       -5.1402341367
  H        11.5481387306        3.2881569000       -2.9261846817
