140

  C         5.1083816402       -1.4956119167       13.7283220601
  C         6.1712462755       -0.8203604612       14.4148781399
  C         7.2816170687       -0.2907091654       13.7030277985
  C         8.3083601750        0.3940690207       14.4290001155
  C         9.3335526785        1.0701178077       13.7452746866
  C         6.1214087055       -0.4135178339       15.8952451276
  C         5.3930160230        0.7281066511       16.3835400637
  C         5.3662008286        1.1739875842       17.6624073158
  C         6.1426382051        0.5529241646       18.6336068668
  C         6.8032636941       -0.6818469137       18.2677628010
  C         6.7720233003       -1.1105417276       16.9374499070
  H         8.3322244324        0.3092284689       15.5414272536
  H        10.1542141576        1.5296366849       14.3113274059
  H         4.6889535206        1.2093015709       15.6729393556
  H         4.6589306771        1.9842091272       17.8831427954
  H         6.3160185587        1.0738238649       19.5717215692
  H         7.4430698551       -1.2026409044       18.9523774195
  H         7.3447314550       -1.9626447279       16.6783244985
  C         5.1642601301       -1.5004805814       12.2394592264
  C         4.2260512130       -2.2371599564       11.5488339311
  C         3.1122222136       -2.7699331713       12.1933695248
  C         3.0046605070       -2.6897611934       13.6844701931
  C         4.1009550415       -2.2093820780       14.4209074941
  C         7.2864680010       -0.3114935115       12.2663988862
  C         6.2425309409       -0.8288726154       11.5250244968
  C         6.0941328102       -0.4232878482       10.0674132421
  C         5.3156464382        0.6854986053        9.8167869136
  C         5.1492639324        1.1109802746        8.5197163363
  C         5.9339147854        0.6050097842        7.4851723239
  C         6.7607752987       -0.5241014654        7.7575971050
  C         6.8984841112       -0.9696245335        9.0388898648
  H         7.4691439614       -1.8807124268        9.1652656173
  H         7.3316694398       -1.0312800155        7.0271592187
  H         5.8760669982        0.9701071629        6.4869125353
  H         4.4066514487        1.8973264438        8.2375033173
  H         4.6998361765        1.1032464165       10.6085378302
  C         8.2842670762        0.4542473852       11.5720513029
  C         9.2383812282        1.1571080923       12.2996100477
  H         9.9163339497        1.7512195400       11.7319987096
  H         8.1148003853        0.6408405623       10.5337017298
  C         4.1788645584       -2.4999843974       15.9089337670
  C         4.9841331850       -3.5707036367       16.3909631122
  C         4.9483555289       -3.8499422669       17.8052819676
  C         4.0274540206       -3.3179228628       18.6407578737
  C         3.2792371289       -2.2392663368       18.1635757281
  C         3.3458516006       -1.7948461082       16.8614987961
  H         2.6875986752       -0.9890725008       16.5334846498
  H         2.6554988412       -1.7293724891       18.9101531922
  H         3.9929862942       -3.7146669550       19.6680583678
  H         5.6391526993       -4.6412262960       18.1478795199
  H         5.5888151747       -4.1755863560       15.7040208583
  C         1.9063814492       -3.3699077797       14.2547483294
  C         0.9382217311       -4.0783717448       13.5161497499
  C         0.9802971751       -4.0124817090       12.1099266102
  C         2.0829890369       -3.4702234128       11.4710397172
  H         2.0986858807       -3.5105322570       10.3850620548
  H         0.3210601632       -4.6137716340       11.4468741075
  H         0.0994255188       -4.6426820743       13.9612716732
  H         1.8119303005       -3.3743696276       15.3037868998
  C         4.2694746939       -2.6499162039       10.1080321101
  C         4.8336631117       -3.8615047057        9.6886712295
  C         4.6741535606       -4.3033287240        8.3315811790
  C         3.9123304403       -3.5614188753        7.4689676600
  C         3.4543135552       -2.3264576337        7.8614139509
  C         3.5990571764       -1.8657146803        9.1677516788
  H         3.1243964089       -0.9151493197        9.4483524297
  H         3.0312685474       -1.5639750275        7.1408366545
  H         3.6692155308       -3.8876168756        6.4167725770
  H         4.9992105446       -5.3275311381        8.0080179968
  H         5.4031687675       -4.5016708612       10.3588651205
  C         1.4513212617        5.7768068652       13.7122811467
  C         0.4345432772        6.4640701673       14.4893041521
  C        -0.6420660476        7.0949478635       13.7713223526
  C        -1.6401458158        7.7249745876       14.5796554869
  C        -2.6676102661        8.4688648358       13.9862123508
  C         0.5553936138        6.7505578799       15.9923929206
  C         1.0835610914        7.9885462309       16.2872609962
  C         1.0705123787        8.4592093319       17.6243024979
  C         0.4600310135        7.7110073441       18.6416076798
  C        -0.1738358276        6.4883116639       18.2373712036
  C        -0.0877968988        5.9760343122       16.9665229667
  H        -1.5531413530        7.7617520507       15.6409182745
  H        -3.3705408987        9.0541274866       14.5758476415
  H         1.6524178039        8.5126338837       15.4796960514
  H         1.5825266984        9.4632596228       17.8494792448
  H         0.2788221265        8.1285193859       19.5772381694
  H        -0.6582220694        5.8525671934       19.0164630995
  H        -0.5552217980        4.9947009317       16.8029656065
  C         1.4747236615        5.8981651098       12.2453980571
  C         2.4450947902        5.1593688583       11.4622532232
  C         3.5230632666        4.5404847461       12.0774628870
  C         3.5465576042        4.3852082240       13.5285830342
  C         2.5012139251        4.9217997050       14.2947239439
  C        -0.6992449715        7.0644430717       12.3590331246
  C         0.3746007273        6.5269017710       11.6495949436
  C         0.4471316470        6.9497905466       10.1346115636
  C         1.3381594056        7.9391538285        9.7987722724
  C         1.4803647290        8.4226515578        8.4818851002
  C         0.6980761004        7.9254411437        7.4563426552
  C        -0.2674462147        6.9574444214        7.8133830284
  C        -0.3894616258        6.4560345295        9.1090651403
  H        -1.1674717653        5.6648948483        9.2625259279
  H        -0.9946499284        6.6706028952        6.9812631341
  H         0.8051085981        8.2621100775        6.4623911978
  H         2.1670478833        9.2308877241        8.2834592446
  H         1.8576857482        8.4201145087       10.5626383255
  C        -1.8131719140        7.7437669501       11.8294677380
  C        -2.7234609956        8.4346227949       12.6022152204
  H        -3.5623087766        9.0213118448       12.1766431964
  H        -1.8644232315        7.7385378718       10.7441030182
  C         2.5129286046        4.6179388402       15.7360629548
  C         1.6869941663        3.6011612335       16.0872333364
  C         1.6755535687        3.1321226870       17.4342300913
  C         2.4914858678        3.6744030836       18.4040025035
  C         3.2607345107        4.7897223583       18.0268830638
  C         3.2899662146        5.2143504112       16.7218140073
  H         3.9014610230        6.0376542356       16.4780061154
  H         3.9306956738        5.2475699373       18.7946430633
  H         2.6715692283        3.3392429138       19.3992304374
  H         1.0073035128        2.2660659089       17.7062509218
  H         1.0540740944        3.1584249171       15.3333174973
  C         4.7254287722        3.6998368900       14.0955828825
  C         5.7155210018        3.1545291935       13.3497343656
  C         5.5958763461        3.3026120470       11.9334732688
  C         4.6504671116        4.0478444387       11.3132492074
  H         4.6379789854        4.0986114014       10.2312832783
  H         6.3542702339        2.8373981233       11.3569762962
  H         6.5778266251        2.6916238700       13.7817739400
  H         4.8377714335        3.7397050669       15.1881692691
  C         2.2321453796        4.7897343597       10.0116632783
  C         1.2799346492        3.8052373949        9.5740295496
  C         1.2519777831        3.4169615585        8.2182977910
  C         2.0789449929        4.0582809337        7.2547948157
  C         3.0465075821        4.9615694519        7.6540934847
  C         3.1190982787        5.3397611639        9.0072920245
  H         3.7481005827        6.1649450695        9.2334530662
  H         3.6668770107        5.4353981850        6.8648333703
  H         2.0107443803        3.8330455301        6.1558926383
  H         0.4339066793        2.7761780448        7.9504585642
  H         0.5293105893        3.3164604220       10.2101334279
