140

  C        15.3273701160       -1.1430575674        0.5211371620
  C        16.3037817208       -0.3477163682        1.2246811557
  C        17.4743122901        0.1208391340        0.5540509474
  C        18.4679401612        0.8050058940        1.2478192874
  C        19.5238683872        1.3126966033        0.5038293016
  C        16.1773112326        0.0697480926        2.6171407084
  C        15.2754646521        1.0631262973        3.0399090459
  C        15.3867861196        1.5115013264        4.3364383993
  C        16.3070404934        0.9695268054        5.2139718441
  C        17.1787441992        0.0246485043        4.8320543634
  C        17.0923404466       -0.4791854956        3.5117223362
  H        18.4728046562        0.9339522719        2.2955080663
  H        20.3057504350        1.8013653181        0.9772605504
  H        14.5480485796        1.4721546446        2.4446948985
  H        14.7392685922        2.2634970073        4.7798312758
  H        16.3042907436        1.4934080120        6.1636971805
  H        17.9428962130       -0.4034905860        5.4311468400
  H        17.7773127775       -1.3249606373        3.1978867362
  C        15.3581567338       -1.1827279623       -0.9636707040
  C        14.3174808631       -1.9425600989       -1.6843701407
  C        13.2850924166       -2.6351898093       -0.9747765392
  C        13.2728585664       -2.6542639204        0.4586099982
  C        14.3017439087       -2.0345935809        1.2251777235
  C        17.5483037467       -0.0666337423       -0.9054546361
  C        16.4534949112       -0.5189115970       -1.6346047655
  C        16.3849914071       -0.1609173621       -3.0675747621
  C        15.8649606098        1.0804910221       -3.3728873712
  C        15.6513511338        1.5522501543       -4.6986622981
  C        16.1864598600        0.8396594198       -5.7576290134
  C        16.8930194987       -0.3727291001       -5.4829170013
  C        17.0474323148       -0.8546030722       -4.1602362918
  H        17.6333848367       -1.7859326601       -4.0722435431
  H        17.3728306461       -0.9611534967       -6.2757337888
  H        16.1286975239        1.3644552938       -6.7206858724
  H        15.2758959554        2.5716213747       -4.8734930975
  H        15.3645013162        1.6399896113       -2.5842140148
  C        18.7629715200        0.3521829195       -1.5835649454
  C        19.6570812386        1.1081976812       -0.9059348174
  H        20.5670456138        1.4406501895       -1.3668345179
  H        18.8745068644        0.0878954723       -2.6024446448
  C        14.4914141546       -2.3980534248        2.6415342633
  C        15.2851343036       -3.5156178463        2.9703486503
  C        15.4025572430       -4.1084041282        4.2582408670
  C        14.7021303714       -3.4520116178        5.3451599161
  C        13.9769782235       -2.3255556518        5.0390305549
  C        13.9113210571       -1.6924367274        3.8085209224
  H        13.3125966992       -0.7630982885        3.6776433339
  H        13.6091638246       -1.7403284076        5.8634235830
  H        14.8702356897       -3.8157385448        6.3291709900
  H        16.0374869833       -4.9746663577        4.3952380597
  H        15.8012972529       -4.0006134602        2.1067853870
  C        12.2319130554       -3.3823568714        1.1210472165
  C        11.2006002102       -3.8763654670        0.3553413577
  C        11.1758143891       -3.7659393989       -1.0699963974
  C        12.2408606300       -3.2304115525       -1.7339330555
  H        12.2829203507       -3.2406887355       -2.8169384952
  H        10.3591828100       -4.1813598537       -1.6207756206
  H        10.3794829021       -4.4412840607        0.7955958672
  H        12.3431937110       -3.5638273899        2.1677008302
  C        14.3775822568       -2.0815886276       -3.1675881628
  C        14.9918138766       -3.2970996012       -3.6682488441
  C        14.9121026670       -3.6248659373       -5.0271139642
  C        14.2140283994       -2.8492406419       -5.9870048970
  C        13.5804812941       -1.7144414093       -5.4721055993
  C        13.7611080236       -1.2536198659       -4.1274384456
  H        13.3122134206       -0.2954876873       -3.8745332233
  H        12.9056018899       -1.1591463520       -6.1159800776
  H        13.9638213767       -3.1294767747       -6.9703829516
  H        15.4045218790       -4.5144055236       -5.2810551515
  H        15.4043501402       -3.9672463481       -2.8825097835
  C        11.9434430128        6.0877466381        0.4501867979
  C        10.8978741762        6.8505987925        1.1142973096
  C         9.8488784833        7.4204394146        0.3803962289
  C         8.6739985124        8.1274172182        1.0618554745
  C         7.6299104356        8.7045820664        0.3376575174
  C        10.9377922725        7.2643850254        2.6132794033
  C        11.7496669302        8.4235697506        2.9656621814
  C        11.6232098622        9.0272851704        4.2665831968
  C        10.7842510048        8.4656274275        5.1830397288
  C        10.0987911531        7.2946931544        4.9476668407
  C        10.2007230280        6.6255940388        3.6168618496
  H         8.6810684256        8.1848705465        2.1318774226
  H         6.8297186938        9.2114145673        0.9217394373
  H        12.3351084884        8.8438064703        2.1037790745
  H        12.2952172631        9.8847468253        4.5427050522
  H        10.7636743171        8.9282760660        6.1327561300
  H         9.4721698973        6.8407176788        5.6361961449
  H         9.6688623996        5.6969118524        3.4797010070
  C        11.9027439232        6.0578258224       -1.0405793367
  C        12.9751882030        5.3862403259       -1.6905783288
  C        14.0440612970        4.8357688341       -1.0258908747
  C        13.9805324270        4.7392487327        0.4008758552
  C        12.9314612006        5.3185962787        1.1201848535
  C         9.8157858715        7.3402555425       -1.0890548902
  C        10.8466732608        6.7146566034       -1.7785105751
  C        10.9157792812        7.0654707779       -3.2293204712
  C        11.7448937492        8.1256018988       -3.7424259231
  C        11.7463697326        8.4597119845       -5.0807576322
  C        10.9081129903        7.8130242014       -6.0220631937
  C        10.0495073787        6.8280420481       -5.5414406319
  C        10.0963628976        6.5182729456       -4.1650231028
  H         9.5560219982        5.6051785701       -3.8587465638
  H         9.4250534805        6.1454135377       -6.1259219532
  H        10.9977146679        8.0409917290       -7.0927409717
  H        12.4150427586        9.2065108350       -5.4609785762
  H        12.3749075864        8.5294906886       -3.0473754824
  C         8.7443417377        7.9914747202       -1.7167291292
  C         7.6549624974        8.5567534972       -1.0392258322
  H         7.0038221678        9.1455663996       -1.6580844108
  H         8.7326518303        7.9709947275       -2.8002041936
  C        12.9332955176        5.0630281511        2.6612218716
  C        12.4808116241        3.7851194332        3.0843793893
  C        12.5596376525        3.3929866441        4.4224445901
  C        13.1300311018        4.3663453237        5.4019771154
  C        13.6899848642        5.5983829966        4.9579583479
  C        13.6378762972        5.8727483165        3.5744119164
  H        14.2221648806        6.7563935666        3.1781546607
  H        14.1364743916        6.2574721281        5.7076328865
  H        13.1450005448        4.2322765668        6.4689705132
  H        12.1920400305        2.4318698233        4.8204971495
  H        12.0381737631        3.1893116724        2.3155370001
  C        14.9963236421        3.9681021591        1.1021170286
  C        16.0938233766        3.4121130118        0.4151424864
  C        16.1422407545        3.5318905517       -0.9562610715
  C        15.2161147877        4.2758905155       -1.6528918732
  H        15.3524485507        4.3095498973       -2.7469280809
  H        16.8767764756        2.9655675286       -1.4641217464
  H        16.7320063881        2.8043733458        0.9765302564
  H        14.8600639365        3.6240497419        2.1771211972
  C        12.9634562759        5.0406192703       -3.2462599089
  C        11.9338232930        4.1450184794       -3.6100130608
  C        11.8802399331        3.5812861047       -4.9202592795
  C        12.8346814812        4.1023064035       -5.8425903198
  C        13.7906095064        5.0718703455       -5.5100406230
  C        13.9117355409        5.4393528215       -4.1368982696
  H        14.7933084244        6.0693331256       -3.9550979622
  H        14.4601269046        5.4771480971       -6.2220267913
  H        12.7427731755        3.8652211368       -6.9268521121
  H        11.0758848901        2.8741824051       -5.1268437919
  H        11.1068992990        3.8284400287       -2.9277663448
