140

  C         4.6746847922       -1.2796296726       13.8681448326
  C         5.6921758262       -0.5424766271       14.5725265204
  C         6.8304520658       -0.0657368518       13.9086006783
  C         7.9158725293        0.7709125082       14.5304395752
  C         8.9190628453        1.3309637788       13.7922915441
  C         5.7168953317       -0.3554799385       16.0441257439
  C         4.7261948557        0.4710541987       16.5234486310
  C         4.7842226380        1.0585848351       17.7810452776
  C         5.8115361152        0.5692268973       18.7010588842
  C         6.6304519448       -0.4967169572       18.3144779294
  C         6.5987980703       -0.9268850938       16.9616740132
  H         7.8043333097        0.9161057563       15.5976010304
  H         9.5183829095        2.0741352840       14.3276131583
  H         3.9003017938        0.8919815021       15.8664214469
  H         4.0839873373        1.8226203055       18.0552903821
  H         5.9506376561        0.8977600143       19.7288400333
  H         7.3344519278       -0.8856205197       19.0870932532
  H         7.3037069217       -1.7522230399       16.6264866369
  C         4.6844078529       -1.2999930531       12.3598820642
  C         3.6250300482       -1.8955551019       11.6960134664
  C         2.5615792873       -2.5635134501       12.3689329428
  C         2.6197276478       -2.6426979922       13.7995351726
  C         3.6482771325       -2.0261624124       14.5828794364
  C         6.8416006007       -0.0986715749       12.4108428186
  C         5.7358416737       -0.6355705007       11.6827848605
  C         5.7837182851       -0.1582438887       10.2917208925
  C         5.3008214065        1.1272924168       10.0178985037
  C         5.3278663667        1.6255252481        8.7153620335
  C         6.0081614862        0.9725857427        7.6848068101
  C         6.6468971375       -0.1810557208        7.9752290345
  C         6.5473741662       -0.7552422705        9.2805336459
  H         7.1091668498       -1.6978539377        9.4194425895
  H         7.2366426157       -0.5748419029        7.1299808693
  H         6.1706364165        1.4561132696        6.7146202794
  H         4.8554918273        2.6534540308        8.5892291565
  H         4.8193530707        1.6873433343       10.8339037121
  C         8.0184490157        0.4249509166       11.7383551819
  C         8.9873454039        1.0972186128       12.4331537437
  H         9.9341249889        1.2177279861       11.8930910743
  H         8.1968571950        0.3485220453       10.6922572842
  C         3.6614062942       -2.4297282663       16.0665331607
  C         4.7082134198       -3.1726725089       16.5943922862
  C         4.7438476160       -3.5017163699       17.9731344544
  C         3.7084298774       -3.1361086161       18.8291609929
  C         2.6533662942       -2.3392413126       18.2967790413
  C         2.6723442434       -2.0116137765       16.9220140416
  H         1.8293545343       -1.5549970530       16.4775576554
  H         1.8915453658       -1.9153753007       18.9735160713
  H         3.7347672277       -3.3030509167       19.8988626072
  H         5.6207541637       -4.0315912483       18.3391064681
  H         5.5595866517       -3.3636633597       15.8867618631
  C         1.5408322279       -3.4181571696       14.4958616671
  C         0.6168272403       -4.0769049392       13.8102103762
  C         0.6214889255       -4.0437718943       12.4222196958
  C         1.6075110087       -3.3768659525       11.7127321489
  H         1.5884378608       -3.4421688712       10.6283157262
  H        -0.1468331651       -4.6496189579       11.9494520167
  H        -0.1768851709       -4.4757422749       14.3525697906
  H         1.5966828793       -3.3900161266       15.5939818646
  C         3.6656479468       -2.1653991708       10.1875365008
  C         4.4096199634       -3.3332119320        9.8649387806
  C         4.4588293666       -3.7536373911        8.5331159539
  C         3.8319744671       -3.0047993555        7.5411818905
  C         3.1400346848       -1.8363058459        7.8355885728
  C         3.1346240412       -1.4330266874        9.1723585341
  H         2.5454274088       -0.5605674042        9.4065129547
  H         2.5464247553       -1.2338825438        7.1066623147
  H         3.9567720697       -3.4278221312        6.5183235152
  H         5.0515149786       -4.5710603048        8.2821421074
  H         4.7953578707       -4.0279778480       10.5616569169
  C         1.1860592257        5.8439754492       13.9367066490
  C         0.1312310772        6.6281253483       14.5961937049
  C        -0.9291345200        7.1065039519       13.8759190818
  C        -2.1075804364        7.8441327963       14.5341639820
  C        -3.0722927166        8.3726092747       13.7175964547
  C         0.1599795590        7.0064629412       16.0881016001
  C         0.8644431383        8.1298149022       16.5783158167
  C         0.8171118857        8.4735181827       17.9440878478
  C         0.0537061284        7.7350780096       18.9011706944
  C        -0.6786726419        6.6764399560       18.3341617625
  C        -0.6613689677        6.3206371982       17.0014387436
  H        -2.1924055375        7.7514434075       15.5920372809
  H        -3.9521977142        8.7873967716       14.1858077450
  H         1.5284119372        8.7432436561       15.9595020894
  H         1.4082067469        9.2848636733       18.3149190491
  H        -0.1184145976        7.9009912879       20.0143289279
  H        -1.2921389013        5.9039936465       18.8572677465
  H        -1.4126741366        5.5355344808       16.5979141004
  C         1.1798301550        5.8755046912       12.4182115984
  C         2.2105556936        5.1122635844       11.8324591333
  C         3.2660317620        4.4979939913       12.5540087394
  C         3.2948402218        4.5788849277       14.0258306122
  C         2.2019167187        5.2089749196       14.6637696251
  C        -0.9158197577        7.0971182873       12.4371044830
  C         0.1631390346        6.5749210223       11.7206024407
  C         0.3475668733        6.9315496380       10.2579489958
  C         1.3495863850        7.8739236638        9.9431145002
  C         1.4247129017        8.3845834223        8.6696262116
  C         0.4401427891        8.0068965485        7.7454341612
  C        -0.5343795707        7.0764362973        8.0342512388
  C        -0.5573971473        6.4796133725        9.2989196885
  H        -1.1707957557        5.6617309408        9.6367257349
  H        -1.2112171505        6.7973734892        7.2500712924
  H         0.4886761720        8.3789041912        6.7038961185
  H         2.2512887458        9.0931594448        8.3310478611
  H         2.0110491700        8.1811963418       10.7347995356
  C        -1.9362713919        7.7630935625       11.6810246986
  C        -2.9965231449        8.3762662713       12.3017927276
  H        -3.7101707050        8.9574754353       11.7590693360
  H        -1.8496531639        7.7412031885       10.6254746507
  C         2.0263037167        4.8763704506       16.1211376384
  C         1.3082954195        3.7243293005       16.4906228949
  C         1.1877444013        3.3996519803       17.8169055489
  C         1.9169919737        4.0889647965       18.8159389657
  C         2.8618278398        5.0820968841       18.4293070808
  C         2.7933364050        5.5243446488       17.1349248821
  H         3.5311215586        6.2667941453       16.8657245844
  H         3.3796598600        5.5847704499       19.1559463241
  H         1.6702280135        3.7884248447       19.7939145672
  H         0.4665313661        2.6295978951       18.0698091611
  H         0.7217916374        3.1566216511       15.7748382807
  C         4.2966518208        3.9179623026       14.8007673637
  C         5.2551698355        3.2621844237       14.1263594646
  C         5.3806212458        3.2622048500       12.7230080918
  C         4.3778388677        3.8334004386       11.9734560186
  H         4.5422566107        3.8692442977       10.8954847174
  H         6.2116232117        2.6959642121       12.2977757663
  H         6.0502588670        2.6842852530       14.5970696781
  H         4.2926835202        3.9185824953       15.8676093466
  C         2.1108481016        4.7412023470       10.4054780081
  C         1.2525880946        3.6432759638       10.1290020611
  C         1.1358332998        3.1703754811        8.8125332490
  C         1.6935852241        3.8523848196        7.7495997337
  C         2.6570021952        4.8890894691        8.0340046112
  C         2.8585321123        5.3369401192        9.3321406841
  H         3.6114401438        6.0979692587        9.5020597870
  H         3.1693990073        5.3893982092        7.2308255059
  H         1.6798898627        3.5128031351        6.6945520828
  H         0.4025379989        2.3550116408        8.6726754922
  H         0.6288014125        3.1450968251       10.9516035134
