140

  C         3.4840652520        0.3168081881       14.6283777865
  C         4.4737803738        1.0977906611       15.3733215619
  C         5.6987444545        1.5130075614       14.7619940594
  C         6.8548159671        1.9852316877       15.5705106149
  C         8.0213056656        2.2498697929       15.0019061198
  C         4.2255781900        1.4281988529       16.8004631016
  C         3.5008843400        2.5915402037       16.9698479315
  C         3.3751165454        3.1287980725       18.2504578266
  C         4.0169207963        2.5300490472       19.3287311974
  C         4.7958676303        1.3924622286       19.1447867048
  C         4.9424866260        0.8449287559       17.8812475593
  H         6.7786563701        1.9655653314       16.6794721123
  H         8.8728835397        2.3215418372       15.6819579232
  H         2.9391701827        3.0887014465       16.1687922924
  H         2.8434811543        4.1367779980       18.3776668707
  H         3.8512680967        2.7846415096       20.3513201824
  H         5.3925346481        1.0174414057       19.9551334098
  H         5.5877617759       -0.0798182185       17.7720821236
  C         3.5915825788        0.3271878030       13.0869969239
  C         2.6030850581       -0.4097190720       12.3290923108
  C         1.5115400517       -0.9968957840       12.9508045545
  C         1.4424780395       -1.0084139370       14.4527572314
  C         2.5428939438       -0.5461264437       15.2661776639
  C         5.8316972579        1.4147058833       13.3502593324
  C         4.7382113973        1.0430928136       12.5548353662
  C         4.8334777218        1.3342524151       11.0524707673
  C         4.2663968402        2.5354269340       10.5651843789
  C         4.1546503714        2.7330940723        9.1733958649
  C         4.6336716667        1.7305461174        8.2365502184
  C         5.3322279154        0.6052261802        8.7816372124
  C         5.4039565493        0.4397449671       10.1727476671
  H         5.9910485537       -0.3796185628       10.5158495465
  H         5.8760350339       -0.1116533041        8.1281770341
  H         4.4253813206        1.8482934640        7.1569554222
  H         3.7931622738        3.6794636494        8.7657645651
  H         3.9078126453        3.2884503595       11.2910676411
  C         7.1752607592        1.9192503605       12.8062980956
  C         8.2008174633        2.2979629347       13.5724407360
  H         9.2164857976        2.4614516444       13.2582654635
  H         7.2869310112        1.9061864059       11.7076317150
  C         2.5154009402       -0.9583827953       16.7167516645
  C         3.2926250121       -2.0073463865       17.1450947469
  C         3.2942313084       -2.3704918564       18.5173359293
  C         2.5621534152       -1.6674843797       19.4659293396
  C         1.7183974127       -0.6418090189       18.9902695113
  C         1.7533026015       -0.2033059760       17.6578834223
  H         1.2019790059        0.6723678652       17.3436149171
  H         1.1745815291        0.0199810445       19.7152296496
  H         2.6488091528       -1.9841937524       20.4970369899
  H         3.8252078876       -3.2818502289       18.7081087401
  H         3.7499076321       -2.6686515589       16.4261202440
  C         0.2475935234       -1.6064312441       14.9739643814
  C        -0.7919435275       -2.1721920339       14.2065098421
  C        -0.5897979852       -2.3490884962       12.7902811179
  C         0.4632257345       -1.6199275037       12.2257941442
  H         0.4932121553       -1.6747813108       11.1489784092
  H        -1.3001390714       -2.8908651805       12.1000066874
  H        -1.6025638687       -2.6615462081       14.7298913911
  H         0.1723299151       -1.6319698221       16.0168883875
  C         2.8255581536       -0.7686890863       10.8490528253
  C         3.6441512087       -1.8471534007       10.4841995737
  C         3.6077054086       -2.3468854745        9.1828481081
  C         2.8607559566       -1.6974061051        8.1779067394
  C         2.0355935558       -0.6166762280        8.5699210225
  C         2.0156958019       -0.1826401033        9.8888582925
  H         1.3219212670        0.6355652937       10.0398907932
  H         1.3327596499       -0.2466180626        7.8704305389
  H         2.8220071864       -2.1422756386        7.1897025629
  H         4.0962338796       -3.2767572722        9.0727006699
  H         4.0852912210       -2.4880435921       11.1831316297
  C        -0.1233611820        7.5862677871       14.0786025512
  C        -1.2234341894        8.2930977366       14.7621803104
  C        -2.3618901774        8.7369162102       14.0867257729
  C        -3.5707327025        9.1852119228       14.7808593049
  C        -4.6244993792        9.6193390632       14.0706702356
  C        -1.0785143584        8.6043984468       16.2041433877
  C        -0.2838099986        9.6774889861       16.5464163685
  C        -0.1438774641       10.0834616830       17.9147329818
  C        -0.9270307047        9.4454621465       18.8638708023
  C        -1.8207010274        8.3836264796       18.4898756405
  C        -1.8982475133        7.9682933921       17.1935867328
  H        -3.5934622788        9.1910474892       15.8775817124
  H        -5.5512368146        9.8653794169       14.5770323589
  H         0.2332933443       10.2095004367       15.7985741000
  H         0.5685445427       10.8484457217       18.1851478827
  H        -0.9444134595        9.8654117932       19.8855672636
  H        -2.3795128784        7.8286422595       19.2430760371
  H        -2.5571445685        7.1351288216       16.9540522851
  C        -0.1196673669        7.5273936515       12.5487914542
  C         0.9943453167        6.9611346854       11.8611671322
  C         2.0879216287        6.4152493785       12.6178889877
  C         2.0919925042        6.4548925288       13.9936238365
  C         0.9596870508        6.9987083762       14.7167959912
  C        -2.2882996981        8.6794701879       12.6230145025
  C        -1.1438600076        8.2158635113       11.9077960652
  C        -1.0165206248        8.6386300470       10.4495704733
  C        -0.4353650948        9.8702640881       10.0633318397
  C        -0.3426042863       10.3037129352        8.7539971816
  C        -0.9354154402        9.4876237906        7.7425830928
  C        -1.5619908699        8.2671343349        8.1263169426
  C        -1.5286623708        7.7675630894        9.4138337894
  H        -2.1479668920        6.9046052598        9.6782179828
  H        -2.1099209687        7.7697344994        7.3523758331
  H        -0.9967850550        9.7265070666        6.6979503822
  H         0.0773667461       11.2748947445        8.5157137837
  H         0.0694576103       10.4945199762       10.8243169535
  C        -3.5203124086        9.1467446812       11.9176887829
  C        -4.6216506852        9.6115933864       12.6500457488
  H        -5.5217134992        9.9601734243       12.1207551235
  H        -3.5821458972        9.2164049239       10.8144669983
  C         0.8048453542        6.3988029531       16.1329638740
  C        -0.0119281557        5.2380479417       16.1334891504
  C        -0.3740192290        4.6792841494       17.3634551517
  C         0.1400808625        5.1448726753       18.5520645276
  C         1.1310422476        6.1284541695       18.4844273541
  C         1.4468411067        6.7513550322       17.3028008269
  H         2.1342500929        7.6152531159       17.2902242395
  H         1.6982023436        6.4107744685       19.3663076036
  H        -0.1033149112        4.6744627656       19.5207411271
  H        -1.0684589669        3.8134853393       17.3413968443
  H        -0.2597568892        4.7127127979       15.2253559213
  C         3.1106384416        5.7530752625       14.7394327041
  C         4.1267551867        5.0334517385       14.1865695647
  C         4.1481875044        5.1075261220       12.8126953992
  C         3.1442725126        5.6491263117       12.0611500303
  H         3.2285952459        5.5094495974       10.9884094385
  H         4.9999671840        4.7679708238       12.2059426206
  H         4.8523339134        4.5715935459       14.8462213665
  H         3.1866853479        5.8142746554       15.7980097552
  C         0.9144567661        6.5003179256       10.4572027179
  C         0.2307922436        5.3148637197       10.1134250299
  C         0.2428893460        4.7869397436        8.8100517568
  C         1.0408082186        5.4155364387        7.8019191891
  C         1.7690355637        6.5664154017        8.1606416749
  C         1.6907301421        7.1267489326        9.4312459788
  H         2.2283721771        8.0647672399        9.6313545555
  H         2.4556451920        7.0095972804        7.4415857290
  H         1.2402776392        4.9787787221        6.8026207459
  H        -0.3053816354        3.9089915663        8.5580705115
  H        -0.3574660329        4.7679032763       10.8432206816
