140

  C        13.9778484634        0.0602315876        1.1934702638
  C        14.9797848172        0.6950040108        1.8704645612
  C        16.0591880048        1.2987533234        1.2390809980
  C        17.1360241587        1.8593918819        1.9664342521
  C        18.2861882363        2.2832087404        1.3548107108
  C        14.9139578755        0.9733462255        3.3603660738
  C        14.1532263583        2.0926679711        3.8003589178
  C        14.1771917600        2.5652412958        5.1201830490
  C        14.9508766647        1.9432233742        6.1241371235
  C        15.7279757320        0.8370242560        5.6635536901
  C        15.6514298514        0.3629395459        4.3565689693
  H        16.9913379811        1.8687916945        3.0612196668
  H        19.0750168158        2.7782384566        1.8852280743
  H        13.4992869281        2.6234430400        3.0955200014
  H        13.6516516526        3.4238783363        5.4612436613
  H        15.0068213506        2.3068144884        7.1729080490
  H        16.3792360697        0.2171825425        6.3102519989
  H        16.2656024726       -0.4692235519        4.0898239070
  C        14.0815893058        0.0414907673       -0.3114419963
  C        13.1239366110       -0.6947449822       -1.0563044367
  C        12.0239066338       -1.2823835862       -0.3871537815
  C        11.8684857252       -1.2143585287        1.0595705274
  C        12.9079444791       -0.6260193580        1.8496621609
  C        16.1778554726        1.3166830873       -0.2377920010
  C        15.0829946788        0.8010076256       -0.9653254796
  C        14.9984664135        1.1974322532       -2.3929998952
  C        14.1030840407        2.1795227527       -2.8704010862
  C        14.0175342772        2.5315670756       -4.1822984239
  C        14.9350243708        2.0246466069       -5.1100740711
  C        15.8337781858        1.0746532419       -4.6608189246
  C        15.9363761576        0.7538641680       -3.2862059014
  H        16.6356197425        0.0522151137       -2.8702499457
  H        16.4939282850        0.4963173922       -5.3837258492
  H        14.9535056154        2.3626339393       -6.1389657826
  H        13.2811745632        3.2884536544       -4.4175253639
  H        13.3480359132        2.6192287803       -2.2038638969
  C        17.3219278554        1.9237945593       -0.8157048413
  C        18.3829361829        2.2767342913       -0.0748963951
  H        19.2420094037        2.7432632828       -0.5566783472
  H        17.3914304704        2.0712221231       -1.8994133167
  C        12.8544070479       -0.7986424490        3.3038403951
  C        13.5707177143       -1.8957413900        3.8381623222
  C        13.5940265679       -2.1618463247        5.2313432685
  C        12.8274624838       -1.3402059289        6.1126617220
  C        12.1328344206       -0.2891383950        5.5327503744
  C        12.0720796504       -0.0223026852        4.1461802591
  H        11.4968431733        0.7483932282        3.7939729025
  H        11.5128583602        0.2567014699        6.1611523990
  H        12.8019147343       -1.7298035550        7.1346404554
  H        14.1400669690       -3.0394980515        5.5737783041
  H        14.3062153863       -2.3930614998        3.1981134460
  C        10.7328594899       -1.8407956925        1.6340556937
  C         9.7108690875       -2.3537543235        0.8679809804
  C         9.8817298709       -2.3634717944       -0.5523671210
  C        10.9631918530       -1.8368362133       -1.1521585306
  H        11.0617771988       -2.0101293146       -2.2486380044
  H         9.0027453431       -2.6038745272       -1.1806991405
  H         8.8178831956       -2.7673954560        1.2124860319
  H        10.5972129224       -1.9066731625        2.7319441476
  C        13.2102491241       -0.9522845136       -2.5076141736
  C        13.9638114926       -1.9947514496       -3.0956950949
  C        13.7257910325       -2.3657813742       -4.4555799577
  C        12.8856121966       -1.5821940796       -5.2585940392
  C        12.0926223740       -0.4884045984       -4.7135647162
  C        12.3385451295       -0.1992918565       -3.3428878903
  H        11.7587273717        0.4842070698       -2.7743349339
  H        11.3144093011        0.0318249355       -5.2670136163
  H        12.6513137620       -1.9080850738       -6.2748698144
  H        14.2982711849       -3.2284620725       -4.7868246541
  H        14.5839039901       -2.5821896635       -2.4044756533
  C        10.4521339306        7.2714148620        1.0910933947
  C         9.4296585273        8.0315101254        1.7492472355
  C         8.2925954308        8.4902255453        0.9669403267
  C         7.1201029166        8.9586665743        1.6549539770
  C         6.2674855335        9.7519232693        0.9575675989
  C         9.4122528986        8.4003942358        3.1646165184
  C        10.2417761327        9.4938048511        3.6379239531
  C        10.3263117081        9.8416343221        4.9998990083
  C         9.3768492493        9.1178759890        5.8331297591
  C         8.4319142944        8.1865166407        5.4082888791
  C         8.4598866167        7.8731496750        4.0495782821
  H         6.8634831521        8.4955821130        2.5510983829
  H         5.4112570374       10.0460960879        1.5090292626
  H        11.0672858560        9.8057494605        2.9824508478
  H        10.9089856474       10.6372660932        5.3787837141
  H         9.3835028148        9.4522974612        6.8480037691
  H         7.7676465760        7.7017098372        6.0850723663
  H         7.8660323328        7.0347536983        3.6605556161
  C        10.5259282012        7.2648231027       -0.3968560612
  C        11.6625547539        6.6685914244       -1.1207814228
  C        12.6883588248        6.1185284659       -0.3318483836
  C        12.5552795678        6.0708960701        1.1507931327
  C        11.4316226112        6.6115706665        1.8387034145
  C         8.4248031201        8.5954338796       -0.5013545179
  C         9.4676676774        7.9263436263       -1.1449539173
  C         9.6310781105        8.1931228249       -2.6218719112
  C        10.4072961890        9.2932890218       -2.9694254471
  C        10.4606980636        9.8574119835       -4.2519170526
  C         9.5480274106        9.3560220026       -5.2596620123
  C         8.8499575887        8.1466871110       -4.9421815520
  C         8.7899928045        7.5619948260       -3.6649117894
  H         8.2030118373        6.6549710849       -3.4958404580
  H         8.2702992189        7.6851562234       -5.7119212245
  H         9.4502295524        9.8042079287       -6.2498814691
  H        10.9899190082       10.8254059107       -4.4896154697
  H        10.9283190014        9.7161720808       -2.1429024456
  C         7.5282072714        9.4405780519       -1.1775452271
  C         6.4973270495       10.0909752776       -0.4663255628
  H         5.7119989586       10.6779036990       -0.9796450368
  H         7.7194749079        9.7037189211       -2.2204030709
  C        11.3193557085        6.1831218294        3.2916468634
  C        10.4352867076        5.1642063197        3.8179908430
  C        10.4723608061        4.8988319790        5.1618607263
  C        11.3749774198        5.5603320354        6.0528988345
  C        12.2434432931        6.4808998850        5.5097602264
  C        12.2487432874        6.7638101366        4.1246485990
  H        12.9423810866        7.4995804860        3.6936961371
  H        12.9918552879        6.9664063799        6.1454925792
  H        11.4041853921        5.1879913736        7.0743236295
  H         9.7073047090        4.1790421251        5.4816901454
  H         9.7079473842        4.7760674956        3.0682295044
  C        13.5454502931        5.2355728344        1.8275930717
  C        14.5717231227        4.6409572484        1.1599434181
  C        14.7196671606        4.7598233495       -0.2877084646
  C        13.7643161584        5.3801101915       -1.0060644918
  H        13.7530111297        5.3491133259       -2.1335576465
  H        15.5141394368        4.1771233409       -0.7903322919
  H        15.2496809875        3.9418180552        1.6992502648
  H        13.3486412943        5.0705929142        2.8857335059
  C        11.5205935287        6.2910835217       -2.5407282709
  C        10.7781427428        5.1535132458       -2.9397826004
  C        10.8985611982        4.6389520592       -4.2095065510
  C        11.8197040576        5.1722329852       -5.1193033172
  C        12.6772722585        6.1570620047       -4.6772669739
  C        12.5153844105        6.7612335139       -3.3555951633
  H        13.1959501840        7.5062648756       -3.0741401168
  H        13.4667317918        6.5665016827       -5.2657859830
  H        11.9002834596        4.7290568837       -6.1424281907
  H        10.4329373138        3.6738259785       -4.4656947983
  H        10.1447187910        4.7083050065       -2.1743573509
