140

  C         3.8766785466        0.0605217947       15.1580998749
  C         4.8459666004        0.7394498556       15.9168131809
  C         5.9509533823        1.3075344417       15.2847326071
  C         6.8772616111        2.1603431671       15.9870306555
  C         7.9814095218        2.7092671249       15.3482747315
  C         4.7612098186        1.1463320792       17.3946235162
  C         3.9356726399        2.1850825187       17.8485366485
  C         4.1089495799        2.7154775510       19.1629284975
  C         5.0685328926        2.1951616480       19.9696976508
  C         5.8748746176        1.0635911200       19.5596421171
  C         5.6661193201        0.5516315404       18.3225959978
  H         6.7652320385        2.2761479168       17.0738134912
  H         8.7330520742        3.2432829424       15.9000633722
  H         3.1303553710        2.4941106635       17.2065012708
  H         3.4336121146        3.5164836859       19.4300992681
  H         5.1786619718        2.7060425931       20.8997277631
  H         6.6503200173        0.7085404304       20.2687692413
  H         6.3419480452       -0.2475173448       17.9606604168
  C         3.8373250076        0.1094463835       13.6579333929
  C         2.7915874719       -0.5845739620       12.9055993970
  C         1.7200697043       -1.1822181063       13.5610097189
  C         1.7048579729       -1.2441989514       15.0275624970
  C         2.8259297064       -0.7601947512       15.8312115316
  C         6.0382419222        1.1953103548       13.8132910506
  C         5.0231109624        0.5732749693       13.0037791079
  C         4.9597868178        0.9573434017       11.5674315591
  C         4.2089134506        2.1384101754       11.2280465521
  C         4.2594926586        2.6751156152        9.9059495306
  C         5.2219637853        2.1413639915        9.0145250807
  C         6.0070096810        1.0043319304        9.3052153379
  C         5.7646197450        0.4205602907       10.6047732109
  H         6.3268737427       -0.5226821478       10.7632399029
  H         6.7473199488        0.6382920072        8.5966318791
  H         5.1981756497        2.5172085852        7.9754841806
  H         3.6449374998        3.5206749368        9.5449065160
  H         3.4646959049        2.5181139539       11.8997943002
  C         7.1980970208        1.8357192100       13.1752571890
  C         8.1464131856        2.5135444167       13.9582560313
  H         9.0273691983        2.8577177410       13.4324940453
  H         7.2205660400        1.8817448041       12.0828874116
  C         2.8661708480       -1.0962069395       17.2924054511
  C         3.8453364078       -2.0417336960       17.7021192490
  C         3.9238766811       -2.5344691893       19.0314437701
  C         2.9271649274       -2.1189407959       19.9320662553
  C         2.0600311736       -1.1037663099       19.6293910456
  C         1.9883819213       -0.5900758887       18.3182610856
  H         1.2146486778        0.1893998742       18.0922889327
  H         1.2900009846       -0.7435632117       20.3184961035
  H         2.9386797739       -2.4951301570       20.9775192249
  H         4.6318937617       -3.2908026566       19.1670015027
  H         4.5194485579       -2.4534426295       16.9708003404
  C         0.6429650863       -2.0007588022       15.6754028438
  C        -0.4683297623       -2.4415570565       14.9336915013
  C        -0.3858730171       -2.4197982824       13.4806007370
  C         0.6524617825       -1.8633656555       12.8102194346
  H         0.6916015719       -1.8657427103       11.7101942321
  H        -1.2207019634       -2.8741032535       13.0087831083
  H        -1.2436337241       -2.9988808921       15.4255653982
  H         0.6428302901       -2.0268027785       16.7068599002
  C         2.9555676283       -0.7930169036       11.3388653728
  C         3.7818216739       -1.9144463613       10.9907269644
  C         3.8453067119       -2.4167294549        9.7373936876
  C         3.0623114956       -1.8327388306        8.7167104576
  C         2.2646165305       -0.6498853819        9.0319589580
  C         2.1597045220       -0.1685517880       10.3334895602
  H         1.5565680651        0.6478785669       10.6172944727
  H         1.6384004490       -0.2400795555        8.2711922222
  H         3.0176179069       -2.2997050132        7.7400550848
  H         4.5285685326       -3.1981217371        9.4472628579
  H         4.4230934759       -2.3267227169       11.7540609273
  C         0.2527634442        7.2406138767       14.9872333666
  C        -0.6960722664        8.0318768023       15.6787506669
  C        -1.8712758501        8.4718365880       15.0638295351
  C        -3.0035704057        9.1406700739       15.7827571220
  C        -4.0901356730        9.6374863562       15.0562774159
  C        -0.4609797835        8.4543937144       17.0670469697
  C         0.4447235837        9.4748384130       17.3437016418
  C         0.5712982861        9.9752340392       18.6395760902
  C        -0.3715306802        9.5889502363       19.6035288482
  C        -1.2740629221        8.5741249762       19.3166042682
  C        -1.3109575682        7.9685079806       18.0934150741
  H        -3.0487739669        8.9341486210       16.8539416224
  H        -4.8755780195       10.1326455802       15.5634304123
  H         1.1437963133        9.8188154906       16.6362713901
  H         1.3751260983       10.6727190945       18.8184542178
  H        -0.3910864857       10.0335025276       20.5705382788
  H        -1.9974262340        8.1510808750       20.0107039031
  H        -1.9813073483        7.1541012111       17.8562952482
  C         0.1962001961        7.2825911637       13.5440812069
  C         1.2146095327        6.5903001531       12.7673067800
  C         2.3286010475        6.0827780616       13.4734431425
  C         2.3209246684        5.9433919800       14.9081901133
  C         1.2323420837        6.4234580475       15.6377248841
  C        -1.8697319505        8.5456621587       13.6331127833
  C        -0.8069492967        8.0786472921       12.8895666000
  C        -0.7717998961        8.3406358254       11.4601492082
  C         0.1579835352        9.2533390364       10.9926811849
  C         0.1808639360        9.6769914570        9.6263497743
  C        -0.7179684989        9.0835617177        8.7354280852
  C        -1.5739066766        8.0661483357        9.1845395364
  C        -1.5946594436        7.6927589038       10.4992030736
  H        -2.2545659552        6.9167781625       10.7898152644
  H        -2.3322629674        7.5457299092        8.5192122139
  H        -0.6817084844        9.5278834691        7.7231442690
  H         0.8841997468       10.4924727878        9.3406464886
  H         0.7692435893        9.7270440296       11.7685612192
  C        -2.8989972955        9.3399554241       12.9619616062
  C        -3.9793761915        9.8267391317       13.6331127117
  H        -4.8800519686       10.2750682409       13.1569508007
  H        -2.8121113505        9.5816606121       11.9224633367
  C         1.2070108014        6.1233899397       17.1167199952
  C         0.3523812015        5.1669565703       17.6671721401
  C         0.4225408066        4.8315120291       19.0207484505
  C         1.4100305682        5.4598927730       19.8420112082
  C         2.1180137869        6.5396853657       19.3274748425
  C         2.0008629886        6.8525630478       17.9769459117
  H         2.5602212806        7.6656017636       17.6023415309
  H         2.8216470019        7.1170340139       19.9128544071
  H         1.5479180529        5.1378128964       20.8595367984
  H        -0.2616128375        4.0599713253       19.3886070854
  H        -0.2906573437        4.5657831342       17.0205775231
  C         3.4736617654        5.3421814962       15.6012380731
  C         4.4835669886        4.8341828182       14.8445780071
  C         4.4726221753        4.9167958809       13.4214995959
  C         3.4606530261        5.5288508355       12.7909023217
  H         3.6199641303        5.5896559175       11.6857216158
  H         5.3416162285        4.5953291641       12.8188823456
  H         5.4613367860        4.5503200502       15.2216949617
  H         3.5605607987        5.2805117154       16.6528662334
  C         1.1680478132        6.1822404202       11.3014190561
  C         0.2501942962        5.1985906284       10.8795849482
  C         0.2539207493        4.8611376366        9.5121271288
  C         1.1367442275        5.4511792377        8.6587411790
  C         2.0523226000        6.3728003569        9.1123855678
  C         2.0195901806        6.8019040212       10.4142711112
  H         2.6750256925        7.6323265222       10.7268477945
  H         2.7515344558        6.9023598709        8.3431619880
  H         1.1252915983        5.2998708342        7.5674691330
  H        -0.4150473725        4.1070004578        9.1109995300
  H        -0.4379919210        4.7909056417       11.6278655952
