140

  C        14.6906977017        0.2141751569        2.0578264310
  C        15.7927956659        0.8370411549        2.7294768492
  C        16.9239525363        1.3214835406        2.0830917757
  C        17.9916670607        1.9714098388        2.7740238962
  C        19.1793646669        2.3177667827        2.1738951409
  C        15.8185421051        0.9728946483        4.2467366970
  C        15.0737751713        2.0940603371        4.6767773721
  C        15.2660644385        2.6074462434        5.9516285949
  C        16.1128309206        1.9006136682        6.8414349743
  C        16.5623689643        0.6178479952        6.5046255304
  C        16.5532121047        0.2436294746        5.1567732607
  H        18.0423312696        2.0392159297        3.8801547013
  H        19.9240546558        2.8554151055        2.7876094148
  H        14.3306376417        2.5373380373        3.9649468010
  H        14.8196057575        3.5416201961        6.2734333065
  H        16.1908963764        2.2779363771        7.8683223669
  H        17.1147864786       -0.0732746155        7.1175673933
  H        17.0974959468       -0.6102057661        4.8336670586
  C        14.7572402869        0.1616415169        0.5616785918
  C        13.8776353475       -0.6763087713       -0.1815626420
  C        12.7406132665       -1.2272563531        0.5054784861
  C        12.6440262141       -1.1276753182        1.9565350408
  C        13.7121492657       -0.5691180172        2.7497904646
  C        16.9653001638        1.3720981328        0.6215682398
  C        15.8339480829        0.9414363833       -0.1411713043
  C        15.7652269797        1.2658420255       -1.6070066242
  C        14.9444464885        2.2829571646       -2.0979126925
  C        14.9554130481        2.7103918610       -3.4477957276
  C        15.8006898694        2.0061407485       -4.2920352364
  C        16.6496864812        0.9089569091       -3.8798164618
  C        16.5759786762        0.5925592213       -2.5538128985
  H        17.1717855614       -0.2306541691       -2.1462332589
  H        17.3878226744        0.3999134476       -4.4946004375
  H        15.7347062004        2.3995815417       -5.3246206881
  H        14.3194644475        3.5500308952       -3.8204481649
  H        14.4042020400        2.9051824226       -1.4388024850
  C        18.1913956889        1.9385821230        0.0420015853
  C        19.2341653837        2.3997673501        0.7631767479
  H        20.1961801237        2.5561074696        0.2585706239
  H        18.2297777126        1.9782042338       -1.0401803562
  C        13.7416120706       -1.0049858034        4.2269352052
  C        14.4800720013       -2.1758108969        4.4847604390
  C        14.4171125324       -2.7087565857        5.8040210589
  C        13.5327431641       -2.1490445384        6.7457321793
  C        12.7036346633       -1.0413994947        6.4726467072
  C        12.8371366521       -0.4275417442        5.2212414824
  H        12.3483970414        0.5036839877        4.9698606064
  H        12.0133993766       -0.8296312633        7.2487234116
  H        13.6398726878       -2.5769844631        7.7522695676
  H        15.0380640237       -3.5959373075        6.0019799814
  H        15.1389415947       -2.6372659943        3.7570964814
  C        11.5483279921       -1.7118014993        2.6411269390
  C        10.6631325830       -2.4988013728        1.9164062294
  C        10.7120801768       -2.5371428847        0.5095645203
  C        11.7749746409       -2.0209038519       -0.1501868328
  H        11.8183392187       -2.0658891714       -1.2158924046
  H         9.9141841519       -3.0091722465       -0.0714193906
  H         9.9137356015       -3.1534341469        2.3842474585
  H        11.5072955627       -1.7442729642        3.7217520728
  C        13.9024674210       -1.0036097203       -1.7230989175
  C        14.7408084659       -2.0104382968       -2.3147033855
  C        14.6457773932       -2.3016918858       -3.6796923103
  C        13.7752119112       -1.5734135035       -4.4933313924
  C        12.8571480158       -0.7203045324       -3.8660405403
  C        12.9913404465       -0.3853054137       -2.5414015724
  H        12.3954194587        0.3879855380       -2.0777535639
  H        12.0514461595       -0.1005465122       -4.3511814485
  H        13.6505677359       -1.8277764409       -5.5562045228
  H        15.2707414445       -3.0321852377       -4.0921389930
  H        15.4301053867       -2.5322516030       -1.6229136140
  C        11.1191407464        7.3665605323        2.2595823769
  C        10.0866377018        8.0011414434        3.0033582607
  C         8.9767098577        8.5835521098        2.3164545596
  C         7.9521768771        9.2693726831        3.0716012899
  C         6.8231543593        9.7840401501        2.3832649508
  C        10.2509977798        8.3213226051        4.4674995741
  C        11.1699024382        9.2890067634        4.7977848368
  C        11.4209257326        9.7242464905        6.1239443675
  C        10.6400696893        9.1443674711        7.1017111274
  C         9.6522338478        8.1741135788        6.7956377543
  C         9.4280840719        7.7805203432        5.5126465312
  H         8.2171563868        9.3650228032        4.1199120486
  H         6.1507223964       10.4672961738        2.9843936511
  H        11.7504934414        9.6305359749        3.9409466346
  H        12.2097815852       10.4391862482        6.2815452425
  H        10.7923927886        9.3661771144        8.1160187474
  H         9.1868006427        7.6462911481        7.6703729399
  H         8.8180279020        6.9890010895        5.2142317973
  C        11.0821086608        7.3187324361        0.7998436298
  C        12.1385243595        6.5579046045        0.1939191222
  C        13.2164207396        6.0893977240        0.9627103018
  C        13.3076932662        6.1867996478        2.3948481851
  C        12.2798753166        6.8359085516        3.0188367117
  C         8.8803017422        8.5234164472        0.8371562327
  C        10.0292188154        7.9321503714        0.1398011638
  C        10.0769094280        8.3031181346       -1.3143710683
  C        10.9689551400        9.3189739784       -1.7706706039
  C        10.9913734656        9.7984684961       -3.1460249074
  C        10.1219570611        9.2001239998       -4.0722976882
  C         9.3990697736        8.0567525294       -3.6797547605
  C         9.2852885395        7.6433615170       -2.2983269230
  H         8.7152932637        6.7363614195       -2.0552327706
  H         8.9608737975        7.5210159441       -4.5476662098
  H        10.1308053137        9.5333289904       -5.1190711195
  H        11.7711552478       10.5431854158       -3.4767686437
  H        11.6030420164        9.8779980455       -1.0860091608
  C         7.7778688118        9.2309001363        0.2051470862
  C         6.7882169909        9.7830770853        0.9705914668
  H         5.9576298681       10.2812920908        0.5048529336
  H         7.6481698355        9.1934713300       -0.9020539548
  C        12.2668190400        6.4906431803        4.4935082599
  C        11.5953951261        5.2756363829        4.7540752818
  C        11.5792918103        4.8528622598        6.0531569729
  C        12.3939538064        5.3685357991        7.0777960259
  C        13.2397074236        6.4498901202        6.7342138653
  C        13.0251063732        7.1263037124        5.4764435231
  H        13.4194196433        8.1460134567        5.2804287678
  H        13.9852009644        6.7744684091        7.4602269049
  H        12.4265946768        4.9652007302        8.0785665776
  H        10.9053164245        3.9933704988        6.2712064285
  H        10.8981875383        4.7898303821        4.0518491550
  C        14.4526319781        5.5369034575        3.0612663087
  C        15.4141268177        4.8822906784        2.2740240107
  C        15.2412606476        4.6992179810        0.8483187754
  C        14.2123651808        5.3294334163        0.2179782127
  H        13.9784114053        5.0824262794       -0.8108372440
  H        15.9209266479        4.0546360913        0.2624567097
  H        16.2659502472        4.4270416002        2.8174377993
  H        14.6562090497        5.6211148122        4.1036059293
  C        12.1689688399        6.3510621366       -1.3051322642
  C        11.5908950713        5.3024773562       -1.9517257126
  C        11.7802515633        5.1124852917       -3.3171338602
  C        12.5422666216        6.0610351790       -4.0530398433
  C        13.1032586320        7.1658989749       -3.3451045740
  C        13.0033908725        7.2341989637       -1.9678208478
  H        13.4607461268        8.0678801902       -1.4049877662
  H        13.6595534060        7.9354884019       -3.8457122684
  H        12.7590393691        5.7806956356       -5.0659086864
  H        11.4728112766        4.1977444457       -3.7520502813
  H        10.8979534764        4.6460284045       -1.4175848220
