140

  C        14.3656575009        0.2197480862        0.9616947804
  C        15.4639200432        0.8165791383        1.7479125885
  C        16.5961840706        1.3035899284        0.9959100313
  C        17.7599714858        1.7500379612        1.6698993417
  C        18.7842687441        2.4589862715        0.9960091836
  C        15.2816863715        1.2957944222        3.1969314380
  C        14.2494770064        2.2769477619        3.4049354775
  C        14.1976618410        2.9523520132        4.6154457452
  C        15.0405399882        2.6350201090        5.6784245771
  C        15.9865672100        1.6062667594        5.4839521885
  C        16.1069005198        0.9580321666        4.2439379251
  H        17.9132140917        1.5145933523        2.7008593865
  H        19.6812959675        2.8769137693        1.5149367736
  H        13.4897152903        2.3350140764        2.6810979862
  H        13.5105583273        3.8231943904        4.7231637659
  H        14.9706005630        3.0652808130        6.6632978994
  H        16.7188593266        1.1970387768        6.2174847981
  H        16.8610416258        0.2059605839        4.2086430463
  C        14.3640331643        0.2282218762       -0.4472929934
  C        13.4841578827       -0.6095287452       -1.2015583533
  C        12.3396791953       -1.2159563371       -0.5590754662
  C        12.1516574379       -1.0526255069        0.8617857020
  C        13.2213703320       -0.4596216755        1.6267201617
  C        16.4756153627        1.4965425532       -0.4555371169
  C        15.3448527644        1.0639790154       -1.1663643978
  C        15.2513278025        1.3990641888       -2.5896703340
  C        14.3768341232        2.3812720536       -2.9690384054
  C        14.2988638357        2.6858393676       -4.3273725120
  C        15.0529422394        1.9579431150       -5.2195838097
  C        15.9715439863        0.9328030944       -4.7848963809
  C        16.0602423064        0.6481186125       -3.4799293278
  H        16.8348195028       -0.0542498622       -3.1486370649
  H        16.5471304602        0.4615898291       -5.5736237213
  H        15.0583423050        2.0718181627       -6.2856771722
  H        13.6801604784        3.4641574327       -4.6668403728
  H        13.7938440326        2.9229898342       -2.2544519851
  C        17.5646830550        2.2679665797       -1.1227108677
  C        18.6230033600        2.6940271170       -0.3986080049
  H        19.3544505815        3.3316316933       -0.9030751657
  H        17.4333492701        2.6714366904       -2.1536377525
  C        13.2737486477       -0.9017478388        3.0176011622
  C        14.1960354351       -1.9584641445        3.3800608015
  C        14.1082752001       -2.5102725796        4.7079919680
  C        13.2187463470       -1.9627609777        5.6333417836
  C        12.3500090620       -0.9177740482        5.2986133546
  C        12.3912048524       -0.3933841621        3.9940581790
  H        11.8660280337        0.4985853820        3.6556555058
  H        11.6219634145       -0.6100346384        6.0381834750
  H        13.2058475385       -2.4102254388        6.5900411088
  H        14.6800888758       -3.4594419865        4.9401306717
  H        14.9337339782       -2.3341717433        2.6835561443
  C        11.0180027421       -1.6695369327        1.5056105881
  C        10.0867484428       -2.4505053272        0.8281036640
  C        10.3511143789       -2.7220948583       -0.5452462639
  C        11.4086971779       -2.0850712563       -1.2207969954
  H        11.7045595868       -2.3255037086       -2.2666527181
  H         9.7111803347       -3.4597245495       -1.0794828683
  H         9.2152881386       -2.9772224629        1.3367400072
  H        10.9495064144       -1.6048026629        2.5954312513
  C        13.5968968281       -1.0021137859       -2.6394198099
  C        14.3363567504       -2.1760064477       -3.0312204153
  C        14.3917181182       -2.5916479571       -4.3403696694
  C        13.5994013420       -2.0870133455       -5.3486305289
  C        12.8821010401       -0.9359982417       -5.0161479002
  C        12.8662585685       -0.4110379331       -3.7122399383
  H        12.1441285562        0.3687734224       -3.4804456330
  H        12.2748361946       -0.4966642271       -5.7845569137
  H        13.4978370505       -2.5226010171       -6.3450724441
  H        15.0527451554       -3.5141493308       -4.5219216621
  H        15.0367007106       -2.6790473429       -2.3593574033
  C        10.7404230507        7.3854617385        1.2835142612
  C         9.7956651112        8.1412243241        2.0689664718
  C         8.6907895543        8.7328430483        1.2950108759
  C         7.5129004932        9.2885586194        1.9207926034
  C         6.4017492732        9.6538780649        1.2072209372
  C         9.7113107666        8.4494995792        3.5381168577
  C        10.4902387977        9.5499668265        4.0561617113
  C        10.5286495078        9.7799440257        5.4420107251
  C         9.6802106561        8.9802919805        6.3338579277
  C         8.7832729000        8.1214550043        5.8021006535
  C         8.8244910166        7.8018355736        4.4089359064
  H         7.5310001169        9.3844595020        3.0046692553
  H         5.5584237617       10.1288096166        1.7557192141
  H        11.1135111058       10.0476293136        3.2938861212
  H        11.2786017052       10.4904608556        5.8320233473
  H         9.7135295163        9.3339673214        7.3763810286
  H         7.9878081026        7.5162330952        6.3098140539
  H         8.0484444041        7.1467702729        4.0299123902
  C        10.8076892475        7.5297022407       -0.1735876367
  C        11.8829318331        6.8371701505       -0.8585082248
  C        12.9558965265        6.1789826799       -0.1509372455
  C        12.9452297249        6.1522532612        1.3453289160
  C        11.8158824644        6.7090961333        1.9949753161
  C         8.6806104136        8.7274142671       -0.2018260705
  C         9.8163740932        8.2283222485       -0.8774532818
  C         9.9545093113        8.5655485337       -2.4195010895
  C        10.9528356899        9.5002671497       -2.8203966610
  C        11.0975414547        9.9597434781       -4.1168401832
  C        10.2592283614        9.5019570408       -5.0821856101
  C         9.2083726816        8.6714637711       -4.6974161000
  C         9.0871721661        8.1288883989       -3.4203545245
  H         8.3563276644        7.3076601248       -3.1908571253
  H         8.5168204735        8.3222535189       -5.4582752028
  H        10.3246432526        9.8199641582       -6.0648362405
  H        11.7163245786       10.8589500451       -4.2968663420
  H        11.5566660649        9.8502158611       -1.9967370061
  C         7.5897405002        9.2444481909       -0.8615682555
  C         6.4008852967        9.6420988163       -0.2825724644
  H         5.5710929228       10.2303107994       -0.7622996626
  H         7.5891601027        9.4509683563       -1.9668832244
  C        11.6308440799        6.4888851950        3.4441856218
  C        10.6900036795        5.4981663719        3.8753397729
  C        10.5738209035        5.0908169660        5.2186446554
  C        11.4467148464        5.6716221586        6.1570922092
  C        12.3397693522        6.7138738934        5.7830887935
  C        12.4074212756        7.0787736369        4.4519798646
  H        13.1047745196        7.8294916043        4.0710866673
  H        12.9628211393        7.1252206510        6.5485591242
  H        11.4879734254        5.2127472760        7.1749830400
  H         9.8883016682        4.2922429409        5.4689894184
  H        10.1207196693        4.9154585990        3.1911737328
  C        14.0899472469        5.5471447955        1.9787268592
  C        15.0644597894        4.9182052699        1.3084057478
  C        15.0641940655        4.9595746274       -0.1051622605
  C        14.0568067587        5.5184977717       -0.8108607673
  H        13.9972599359        5.4428627666       -1.9120185106
  H        15.8432009470        4.4240806151       -0.5679952704
  H        15.8249389218        4.3440840446        1.8468660137
  H        14.0554900751        5.4687888642        3.0709856001
  C        11.8003959672        6.4777061243       -2.2940769770
  C        10.8821048348        5.5278615332       -2.7682647441
  C        10.9227186190        5.0602730808       -4.0618770488
  C        11.8657466565        5.5756464692       -5.0164699841
  C        12.7845520863        6.5461641412       -4.5757917707
  C        12.7556342536        6.9779467861       -3.2610206601
  H        13.5095187817        7.7042616265       -2.9019345468
  H        13.5427767915        6.9940175325       -5.2534582387
  H        11.7659561412        5.3966995324       -6.0361473388
  H        10.0801149403        4.4559656496       -4.3744591735
  H        10.1844802542        5.1357934399       -2.0192885699
