140

  C        14.5574108991       -0.0642394167        1.1373042177
  C        15.5759553156        0.7725483960        1.7426751703
  C        16.6409348907        1.2582188391        1.0204599638
  C        17.7734415968        1.9293563360        1.6815431150
  C        18.6835128814        2.5712514670        0.8774476475
  C        15.4256200324        1.2051089063        3.2151969159
  C        14.6494404611        2.3126027386        3.5330670881
  C        14.5214672280        2.8251418738        4.8717913268
  C        15.1188308712        2.2015821228        5.9565538836
  C        16.0222623834        1.1617834255        5.5768142663
  C        16.1948159964        0.7341479049        4.2409549920
  H        17.9275129576        1.9015895824        2.7280119987
  H        19.5477955134        2.9945623491        1.3473421808
  H        14.1764244957        2.9235691944        2.7699880149
  H        13.9707908648        3.7718324205        4.8683140731
  H        15.1532225381        2.6339527300        6.9506946918
  H        16.5827441559        0.8558222986        6.4617751416
  H        16.7634844273       -0.1447640726        4.0311204363
  C        14.4210474735        0.0118250597       -0.3311452502
  C        13.3292703394       -0.6333396981       -0.9955148422
  C        12.2352304487       -1.0873550279       -0.2699072511
  C        12.3959096267       -1.2821659841        1.1527090244
  C        13.5151386796       -0.7887239030        1.8393431752
  C        16.5305868307        1.2258316173       -0.4904890679
  C        15.4521477002        0.6468748805       -1.1046930100
  C        15.2736783153        1.1035266985       -2.4537936994
  C        14.3964936721        2.1741302443       -2.6968500819
  C        14.5431336278        2.8910131671       -3.9102141413
  C        15.3617669836        2.4095136684       -4.9363459739
  C        16.1879362613        1.2303525876       -4.7161265984
  C        16.0947289247        0.6210525931       -3.4827559550
  H        16.7421725939       -0.1997913673       -3.2106365417
  H        16.8624387660        0.8906649836       -5.5026973609
  H        15.2989214232        2.8169242559       -5.9469055608
  H        13.8822259350        3.7121749886       -4.2168572490
  H        13.7275176181        2.3818203001       -1.8559220062
  C        17.5518634748        1.9783328891       -1.2079497362
  C        18.5775625616        2.5762784795       -0.5249219878
  H        19.2811608963        3.0973648808       -1.1320882106
  H        17.4259817523        1.9799203904       -2.2528950016
  C        13.6394072510       -0.9804322587        3.2622077207
  C        14.4871533809       -1.8912731451        3.8414906952
  C        14.5645609713       -2.1713738722        5.1850653483
  C        13.8083098003       -1.3692327875        6.0150211900
  C        12.7991135680       -0.5101536775        5.4923444217
  C        12.6780856832       -0.3721178727        4.0829693842
  H        11.9215366220        0.2407075318        3.5498301212
  H        12.0405821804        0.0569340435        6.1181065968
  H        13.9275291211       -1.4202474068        7.0494288080
  H        15.2328897648       -2.9560104086        5.6809841928
  H        15.0170596533       -2.6232624264        3.1937196117
  C        11.4442315040       -2.0651016415        1.9094972639
  C        10.2398064834       -2.3779853417        1.3450734198
  C        10.0708138799       -2.1624914476       -0.0249133208
  C        11.0283625935       -1.5454859270       -0.8437063871
  H        10.8404669919       -1.3922582513       -1.9064748727
  H         9.1217152509       -2.4207590221       -0.4478157726
  H         9.5658160765       -3.0483834526        1.8274031616
  H        11.7546377040       -2.3213077966        2.9133243875
  C        13.3497361444       -0.9650587650       -2.4623037896
  C        14.2622130422       -1.9846676818       -2.8245092899
  C        14.5494099439       -2.3047926741       -4.1377496226
  C        13.7426383908       -1.8196623526       -5.1828102747
  C        12.6768250552       -0.8774662080       -4.8481105152
  C        12.5627395148       -0.4568875763       -3.5027411798
  H        11.8225355378        0.2753253256       -3.2100963335
  H        11.9965056738       -0.5336062426       -5.6151571246
  H        13.9329730949       -2.1998370808       -6.1786915902
  H        15.5191825423       -2.8430975762       -4.4436506132
  H        14.9772945123       -2.3861814023       -2.0564248804
  C        10.6678766186        7.4214065365        1.1958480478
  C         9.5783416808        8.0734492171        1.8793961978
  C         8.5157921983        8.5473031116        1.0742579755
  C         7.2813786905        9.1137764409        1.5919810908
  C         6.3648122837        9.8102031678        0.8246458549
  C         9.5423689823        8.3848518011        3.3691908675
  C        10.5100590246        9.2518082476        3.8109893727
  C        10.6358025163        9.6130065262        5.1233290646
  C         9.6489108306        9.2670493515        6.0774549611
  C         8.6608906504        8.4000952309        5.6499564418
  C         8.5964300801        7.9372304982        4.3073177250
  H         7.0515258146        8.8976257231        2.5959047242
  H         5.4273820871       10.1273031467        1.2553019921
  H        11.2960313564        9.5828208186        3.0903019266
  H        11.4175504556       10.3008387056        5.5651460412
  H         9.8785696104        9.6128641639        7.1304705204
  H         7.9335999405        8.1515804833        6.4990330224
  H         7.9253187495        7.1512747226        4.0805215971
  C        10.6741597111        7.4615444331       -0.2834119094
  C        11.8031107727        6.6741717793       -0.9448331509
  C        12.8282114559        6.1014444896       -0.1455515101
  C        12.8191208746        6.1503376435        1.2827000992
  C        11.6941285702        6.7268481960        1.9445439777
  C         8.7219511255        8.7077737066       -0.3795650014
  C         9.7966360607        8.1557533491       -1.0243360874
  C         9.9838617639        8.5993247641       -2.5065707380
  C        10.6628810189        9.8471218028       -2.6358391206
  C        10.9665351476       10.3751455496       -3.8809251697
  C        10.3935258927        9.8006609299       -5.0581813388
  C         9.6073008455        8.6310016770       -4.9224796407
  C         9.4531692778        8.0150465516       -3.6581628919
  H         8.9684727369        7.0118613827       -3.5646101088
  H         9.1648401363        8.0877929844       -5.7251036278
  H        10.5078489677       10.2352270385       -6.0152210910
  H        11.5168791728       11.3373288820       -3.8848746358
  H        10.8545645657       10.3855292649       -1.6970167620
  C         7.7251821907        9.4696493555       -1.1122598710
  C         6.5295478318        9.9455094770       -0.5804568188
  H         5.8392538845       10.5048700743       -1.1713119248
  H         7.8588146246        9.5413069146       -2.2187432672
  C        11.6192745480        6.3112979739        3.3727308895
  C        10.7790790093        5.2037063433        3.7096883629
  C        10.9196950577        4.6112208270        4.9225725076
  C        11.8232271443        5.1100831441        5.8763677799
  C        12.4827356249        6.3422259301        5.6730237716
  C        12.5170541271        6.8454016470        4.3610502497
  H        13.1042072133        7.7180919077        4.0098681009
  H        12.9788864719        6.8358277690        6.5191921548
  H        11.9737524106        4.7942771141        6.9070311623
  H        10.4250185467        3.6748996818        5.1178137435
  H        10.0354831453        4.7607566480        3.0174894012
  C        13.8808464672        5.5425647611        1.9818947753
  C        15.0346612572        5.1421032991        1.3573463937
  C        15.0460909169        4.9963198775       -0.1246695217
  C        13.9602230523        5.4825006176       -0.8519168243
  H        13.9223703145        5.4676618763       -1.9070985621
  H        15.9346966565        4.6803054342       -0.6096482696
  H        15.8640718446        4.8837887242        2.0163442088
  H        13.8296620558        5.5500204744        3.0530207455
  C        11.8653318750        6.3237443141       -2.4137837683
  C        11.3176805471        5.1345998559       -2.9060883858
  C        11.4727369494        4.7163417604       -4.2384578765
  C        12.1047707742        5.6138686074       -5.1340978200
  C        12.6696298431        6.8242688165       -4.5954250301
  C        12.6026216562        7.1761079622       -3.2821213239
  H        13.1004870184        8.0533663676       -2.9787168106
  H        13.2176533794        7.4474927922       -5.2597582342
  H        12.1961314139        5.2661219918       -6.1187078976
  H        11.0890960170        3.7999321806       -4.6995378957
  H        10.8300820756        4.5280979574       -2.1537921111
