140

  C        15.3951671739       -0.1598347192        2.4781004401
  C        16.4433773850        0.4921188661        3.1897420714
  C        17.5189308744        1.0803760734        2.4213108399
  C        18.5717443960        1.8334257690        3.0626218806
  C        19.5097065543        2.5877551612        2.3685666515
  C        16.3644521967        0.8391265078        4.6029731609
  C        15.4403316631        1.7998029751        5.0119410149
  C        15.2298543086        2.0750411232        6.3357688659
  C        16.1370506821        1.4187532569        7.2882936294
  C        17.1725729039        0.5828201544        6.8184972629
  C        17.2123520570        0.2444737190        5.5297770396
  H        18.5292399030        1.8951527231        4.0957337455
  H        20.2624096157        3.0878379807        2.9552822605
  H        14.9559729803        2.3956956101        4.2502854816
  H        14.4835996451        2.7596932129        6.6829172498
  H        15.9378271520        1.5746497354        8.4021879135
  H        17.7512020918        0.1957215789        7.6255802779
  H        17.8249103573       -0.6502112133        5.2934766355
  C        15.3646852312       -0.1112583853        0.9681249993
  C        14.2974816095       -0.7815650496        0.2756708117
  C        13.1995986576       -1.2333221120        1.0011412162
  C        13.2195453014       -1.3098577467        2.5004749639
  C        14.3984331918       -0.9530569322        3.1550426019
  C        17.4431429284        1.1546070110        1.0034449025
  C        16.4021994435        0.6277919845        0.2293060317
  C        16.4055427070        0.8635146256       -1.2662481642
  C        15.7319199983        1.9729087224       -1.7798831213
  C        15.9886897084        2.4619368869       -3.0606694932
  C        16.8668276213        1.7853305186       -3.8977144488
  C        17.3999868117        0.5873108289       -3.4411984206
  C        17.1899093393        0.1402626824       -2.1289137918
  H        17.7301150262       -0.7521611606       -1.7682461073
  H        18.0378015800        0.0560439683       -4.1174554142
  H        17.0721724216        2.1997182073       -4.8772722995
  H        15.3681540233        3.2912233994       -3.4620074522
  H        15.1921245201        2.6007509421       -1.0902556184
  C        18.4983938880        1.9352895631        0.2636022668
  C        19.5293807390        2.6285283203        0.9434512133
  H        20.3070235707        3.0914995073        0.3942956659
  H        18.5033406182        2.0067996761       -0.7740074764
  C        14.6477153538       -1.4396646443        4.5366068650
  C        15.5090143313       -2.5010919609        4.7431327789
  C        15.5476489417       -3.0707278708        6.0550434641
  C        14.7795564455       -2.5183671429        7.0623658237
  C        13.9344141952       -1.4391881922        6.8529801256
  C        13.8559994850       -0.9136733992        5.6023263534
  H        13.2000062703       -0.0795743986        5.2971770068
  H        13.3713188870       -1.1129241737        7.6922825826
  H        14.7262118148       -3.1810431197        8.0394640232
  H        16.0499119813       -4.0289073782        6.2331892396
  H        16.1422804311       -2.9260488276        3.9905954716
  C        12.1476070589       -1.9344979233        3.1480800358
  C        11.0613412258       -2.3729773456        2.4013062657
  C        11.1453586528       -2.4794980499        1.0153109831
  C        12.1507183586       -1.8841496807        0.3402162825
  H        12.2385560466       -1.9821241761       -0.7348978753
  H        10.3154316639       -3.0357396572        0.5702141020
  H        10.2509525297       -2.8039525548        2.9421085290
  H        11.9611254990       -1.8064996897        4.2301524251
  C        14.4744528710       -1.1643141482       -1.1678773528
  C        15.2364845331       -2.2919938077       -1.5318293478
  C        15.3775671977       -2.6879420660       -2.8593650877
  C        14.7160963170       -1.9397522809       -3.8597337662
  C        13.7719411357       -0.9679298955       -3.5042872100
  C        13.6763681635       -0.5165988570       -2.1753494345
  H        13.0074990686        0.3189359808       -1.8582314128
  H        13.2732411607       -0.3998341774       -4.3028036207
  H        14.7285656591       -2.2709822793       -4.9000399042
  H        16.0110408357       -3.4638391989       -3.3003960648
  H        15.6217886930       -2.9491647126       -0.7080795759
  C        11.5838503824        7.1119993206        2.1168886157
  C        10.5386254150        7.9131813882        2.7170594622
  C         9.3889535632        8.3933109618        2.0088658966
  C         8.2275186260        9.0107622369        2.6452842205
  C         7.2601137919        9.6513887748        1.9200987329
  C        10.5414233347        8.3253404530        4.1248338974
  C        11.3517715962        9.4326688050        4.3845308386
  C        11.4405084109        9.9602374389        5.6534108602
  C        10.6924201704        9.3786736532        6.6437876130
  C         9.8241973114        8.3042167360        6.4532535701
  C         9.6896416890        7.7777898972        5.1268381114
  H         8.0598515403        8.9190866674        3.7264391710
  H         6.2950509581       10.0243445246        2.4131434610
  H        12.0014390495        9.8610572079        3.6291861112
  H        12.2216100460       10.6445264941        5.9309322724
  H        10.6636142682        9.8712053392        7.6842823721
  H         9.1908243911        7.9175773572        7.2367334973
  H         9.0855109981        6.9031712731        4.7352226326
  C        11.5175268855        6.9513681551        0.6715910457
  C        12.5445688920        6.1563918677        0.0360501746
  C        13.6146461369        5.6321275965        0.7853490095
  C        13.6673133751        5.7809765251        2.2030353380
  C        12.6043508525        6.4379072618        2.8450376147
  C         9.5070649620        8.4182655425        0.5676723975
  C        10.5343201257        7.7173967350       -0.0910337805
  C        10.6361200613        8.0796444146       -1.5516993857
  C        11.3762789869        9.2059933786       -1.9319965642
  C        11.3830451032        9.6264545209       -3.2227384666
  C        10.5982904143        8.8807978210       -4.1705269763
  C        10.0399338872        7.6620771111       -3.8156409954
  C         9.9630374421        7.3144860866       -2.4817978856
  H         9.5207189330        6.3906706315       -2.1777467094
  H         9.7240947075        6.9815514303       -4.6174984145
  H        10.6271946312        9.2082812953       -5.2290355828
  H        11.9850170475       10.4900212540       -3.5722282953
  H        11.8841268323        9.9069453571       -1.2232178226
  C         8.5259791398        9.1917948072       -0.1614827961
  C         7.4958618173        9.8265179589        0.5349549960
  H         6.8441212134       10.5329290231       -0.0518937273
  H         8.5805037514        9.4762528918       -1.2253246033
  C        12.4084024600        6.1613599908        4.3308607159
  C        11.3677104838        5.2679784656        4.7224470362
  C        11.3153638175        4.8773415250        6.1088665616
  C        12.3630374286        5.2486385440        7.0330468095
  C        13.3608740151        6.1725418873        6.5912356704
  C        13.3082465129        6.6775734939        5.3043667768
  H        14.0282561733        7.4012752460        4.9381548909
  H        14.2039626353        6.4415905608        7.3036187930
  H        12.2898838632        5.0164909674        8.0731572280
  H        10.5089957515        4.2568535251        6.4932445861
  H        10.6491313165        4.7872348930        4.0280708025
  C        14.6877487996        5.0242536174        2.8255239786
  C        15.6941230586        4.3780880324        2.1780173908
  C        15.8095124494        4.5223339524        0.7590025740
  C        14.7739401931        5.0829954068        0.0816900815
  H        14.8840047845        5.2718123786       -0.9941345558
  H        16.8130712933        4.2383914557        0.3314858268
  H        16.3198778781        3.5506185688        2.5928177008
  H        14.6000877899        5.0589175126        3.9062718326
  C        12.5113597445        5.9067529539       -1.4150541038
  C        12.0584352201        4.6685129634       -1.7858306536
  C        12.2266244739        4.2808452463       -3.1282702219
  C        12.8601762432        5.1499825367       -4.0048301240
  C        13.2685574984        6.4299312628       -3.5680543159
  C        13.0905682893        6.8100121536       -2.2372177331
  H        13.5597563382        7.6821137871       -1.8827602182
  H        13.8837113823        7.0035138300       -4.1954701813
  H        13.2775686139        4.8645353294       -4.9693031568
  H        11.9120821541        3.2934656942       -3.4923654714
  H        11.6731085468        3.9777535849       -1.0310437551
