140

  C         5.2588963677       -0.0501580984       16.1739086170
  C         6.2926258574        0.7653135806       16.8164381683
  C         7.4433768470        1.1628188529       16.1211836718
  C         8.6049429420        1.7920069061       16.7111345709
  C         9.7567650461        2.1903151551       16.0112205908
  C         6.1593187303        1.1475149407       18.3049185138
  C         5.1901464907        2.0558431229       18.6864857334
  C         5.2326094047        2.4429899425       20.0167634863
  C         6.1365258722        1.9657852450       20.9591988959
  C         7.0442872030        0.9669122049       20.6020838564
  C         7.0879672141        0.6153845903       19.2266292551
  H         8.5262460170        1.9781359168       17.7376761530
  H        10.6509585187        2.5671755351       16.4783795970
  H         4.3900755936        2.5305763896       18.0673525335
  H         4.5177833366        3.1782632620       20.3684382302
  H         6.1590154538        2.2598539409       22.0401528646
  H         7.8272031981        0.6635975464       21.3320030174
  H         7.8322020720        0.0207449105       18.7472461427
  C         5.2989117476       -0.1489378550       14.6663591490
  C         4.2817695438       -0.7838927940       13.9398272969
  C         3.1690062573       -1.3927098429       14.5456197382
  C         3.0901960078       -1.4046488030       16.0146798340
  C         4.1436250758       -0.8198424807       16.7874942662
  C         7.4992228024        0.9754970868       14.7049884197
  C         6.3742027143        0.4917169073       13.9760134585
  C         6.2803415664        0.8692445252       12.5413937420
  C         5.3593380204        1.9685745898       12.2951360039
  C         5.2975897452        2.4347984456       10.9637925320
  C         6.2437638203        1.9823740028        9.9903022959
  C         7.1827478969        0.9639620026       10.2842708207
  C         7.1961333822        0.3892804624       11.5798500386
  H         7.9947360176       -0.3712614234       11.8082279517
  H         7.8882101313        0.5571179899        9.5681319748
  H         6.2878592130        2.4681956955        8.9722281047
  H         4.6085624836        3.1917001438       10.6194180146
  H         4.6906298258        2.3900963800       13.0192793491
  C         8.6757444807        1.4245581070       13.9690606555
  C         9.7900072705        1.8854761643       14.6235279808
  H        10.5947452055        2.2513974470       14.0317891247
  H         8.7026506404        1.4027946325       12.9122345851
  C         4.2245344841       -1.1100800745       18.2408172994
  C         5.0870668579       -2.0966262405       18.7176364993
  C         5.1372455074       -2.3781737194       20.0719377602
  C         4.1961311606       -1.8169129355       20.9613801752
  C         3.3590036824       -0.8324705726       20.4821020073
  C         3.2820430308       -0.5207667201       19.1021496644
  H         2.4750123155        0.1246592429       18.6983424480
  H         2.6843214819       -0.3304627144       21.2211104929
  H         4.1123566365       -2.1810162069       21.9983460707
  H         5.7631470687       -3.1583009470       20.4353376398
  H         5.7507589286       -2.5645751902       17.9628706299
  C         2.0816689106       -2.2121807445       16.6396516067
  C         1.1787045654       -2.8731636902       15.8594951330
  C         1.3195078854       -2.9921419318       14.4093580932
  C         2.3173396988       -2.2263004990       13.7928045543
  H         2.5202247973       -2.2329959171       12.7650558774
  H         0.6829937917       -3.6382334591       13.8842907053
  H         0.4347110811       -3.4581811466       16.3817487157
  H         2.1094121949       -2.2739994182       17.7366475799
  C         4.4780646466       -1.0915264946       12.4810688946
  C         5.1899096758       -2.2785251375       12.1592878219
  C         5.2320859915       -2.5879466783       10.7875637149
  C         4.4637152423       -1.9225379103        9.7734478668
  C         3.8002635715       -0.7900097538       10.1310301450
  C         3.7209337129       -0.4598247309       11.4942542664
  H         3.0987848555        0.3409497264       11.8549376816
  H         3.1018474820       -0.1017442414        9.5900007898
  H         4.4066686814       -2.2931889389        8.7525606496
  H         5.8701095842       -3.4689939002       10.4624534583
  H         5.7197436227       -2.7723141914       12.9552486583
  C         1.6020763671        7.2131233215       16.1608820836
  C         0.5111843833        7.8509227397       16.8289450640
  C        -0.5925222260        8.3616391220       16.0446890500
  C        -1.8204453418        8.8508291767       16.7068098775
  C        -2.7605977217        9.5895382429       15.9737109769
  C         0.7154102784        8.2933388954       18.2685290352
  C         1.8487013707        9.0785271585       18.4717835642
  C         2.1255994988        9.5553447679       19.7500115395
  C         1.1148006771        9.4718562313       20.7164547953
  C         0.0406692714        8.7044262251       20.5089682840
  C        -0.1948664302        8.0001241400       19.3270113716
  H        -1.8615276498        8.7668753099       17.7793440257
  H        -3.6558030952        9.9215124402       16.5160074282
  H         2.5219962459        9.1788321062       17.6283128165
  H         3.0609917425       10.0050052378       19.9748378691
  H         1.3754296250        9.7906287021       21.7614151591
  H        -0.6057276848        8.4480428199       21.3746629751
  H        -0.9019180160        7.2157337764       19.2657281944
  C         1.7124172033        7.1802814258       14.7049441538
  C         2.7155382967        6.4586947390       14.0248918530
  C         3.8012109003        5.8621222493       14.7685514139
  C         3.6614280870        5.8031270904       16.2410632599
  C         2.5938678375        6.3864196669       16.9265900728
  C        -0.4769023201        8.5122890851       14.6379023480
  C         0.6664872854        7.9768996531       13.9981833482
  C         0.8678180723        8.1861911892       12.5291628394
  C         1.8078671103        9.2037438725       12.0716655273
  C         2.0062886782        9.3991563655       10.6982901670
  C         1.3181470760        8.6469246277        9.7956462874
  C         0.3339843761        7.7513882154       10.1698907039
  C         0.1028547744        7.5163964217       11.5522057358
  H        -0.7025825705        6.8739151606       11.8555116364
  H        -0.1262644649        7.0927739992        9.4599828831
  H         1.4684474092        8.7391004349        8.6693565224
  H         2.7919668584       10.1153111615       10.3618562410
  H         2.4814434679        9.7490945759       12.7111870263
  C        -1.4645299286        9.3056498954       13.9205118352
  C        -2.5282351592        9.8044852061       14.5439710798
  H        -3.1912316257       10.5420574980       14.0253315855
  H        -1.4421376478        9.3249758810       12.8528243242
  C         2.4014200207        6.0038056002       18.3436232046
  C         1.4993058305        5.0197872024       18.7098260394
  C         1.5250247447        4.5356230161       20.0412866092
  C         2.4113237612        5.0384812376       20.9964587857
  C         3.2070855074        6.2009803583       20.6800464305
  C         3.2554288789        6.6087181611       19.3416388064
  H         3.8547724995        7.4600201455       18.9551154848
  H         3.9321446734        6.4568191896       21.4588000585
  H         2.3614330945        4.7537696833       22.1020018714
  H         0.8708399390        3.6720949396       20.2623329171
  H         0.6827564866        4.7807975209       18.0205374327
  C         4.7576270899        5.2315979307       16.9593446087
  C         5.7713749552        4.6591463265       16.3049312270
  C         5.8913234196        4.7252412034       14.9292224101
  C         4.9561363400        5.3551976467       14.1245467304
  H         5.1735103928        5.5181947504       13.0603193117
  H         6.7929140293        4.3509672941       14.5038966801
  H         6.5632538587        4.1542351831       16.8398111546
  H         4.7182667091        5.2590850128       18.0851992181
  C         2.6536208757        5.9430554118       12.6163324561
  C         1.8064674062        4.9304407376       12.1368461478
  C         1.7574454994        4.5164386518       10.8098298113
  C         2.6101773314        5.0673652044        9.8434981790
  C         3.5248858357        6.0528207651       10.2875512351
  C         3.5743389864        6.4817939442       11.6798568151
  H         4.2784915492        7.2481222527       12.0503186920
  H         4.1726662405        6.4558350230        9.5191148499
  H         2.6285704978        4.6391401516        8.8156591149
  H         1.1513361314        3.6450065784       10.5632052517
  H         1.0799163373        4.5052471382       12.7824054640
