140

  C         2.5494011223        0.6160988836       14.7998924879
  C         3.5457460708        1.2547147063       15.5281430812
  C         4.6812576430        1.6903077049       14.8353918885
  C         5.7798597018        2.3717078903       15.4449874192
  C         6.8537001221        2.9305098433       14.7859963300
  C         3.4036105656        1.5171037281       16.9893750245
  C         2.6255195020        2.6309263598       17.3961781151
  C         2.7187929079        3.2471256043       18.6543847458
  C         3.6657066795        2.7985234006       19.5855534316
  C         4.4215594689        1.6763330998       19.1880793596
  C         4.2986576446        1.0186171368       17.9508998525
  H         5.8015397584        2.4373695374       16.5056622195
  H         7.6059622045        3.3445871560       15.3992707262
  H         2.0230762781        3.0960963738       16.6262907899
  H         2.1948456738        4.1964624234       18.6665000470
  H         3.8727226363        3.2645996474       20.5613593431
  H         5.0750690434        1.3196847934       19.9480952377
  H         4.8774966844        0.1417737397       17.7486950006
  C         2.5652240341        0.4411675463       13.3298416437
  C         1.5269318977       -0.2353382646       12.6732826254
  C         0.3542779717       -0.6433858750       13.3846765874
  C         0.3032685652       -0.3920106123       14.8170311026
  C         1.4640448420        0.0872585524       15.5293180795
  C         4.7122548314        1.6330190497       13.3660653546
  C         3.5735121760        1.2164156978       12.6467598558
  C         3.4637850758        1.5549170165       11.2263875705
  C         2.6337391948        2.6649411502       10.9815478321
  C         2.3221217481        3.1117488970        9.7427744854
  C         3.1632939952        2.6404607953        8.6666341174
  C         4.0012757707        1.5116876237        8.8869982080
  C         4.1607686417        0.9480678130       10.1830864254
  H         4.7589106550        0.0602351177       10.3114276535
  H         4.4647189083        0.9785197042        8.0967063523
  H         3.0484607798        2.9470256988        7.6294034550
  H         1.5178780940        3.8318492784        9.5706992129
  H         2.1971538869        3.0731209594       11.8949758900
  C         5.8868427005        2.0594625602       12.7357770973
  C         6.9406614320        2.7165562765       13.3949956836
  H         7.7771926756        3.0949335009       12.8586822486
  H         5.9494184198        1.8646630366       11.6340970777
  C         1.4181206141       -0.3868157390       16.9726157202
  C         2.2803048625       -1.4670279779       17.4108443385
  C         2.1197644781       -2.0247474669       18.6866441682
  C         1.2250683645       -1.4144761783       19.5574479147
  C         0.6034365234       -0.2051224264       19.2593404832
  C         0.6064228949        0.2389872195       17.9224623954
  H         0.1315886028        1.1534388313       17.6692475871
  H        -0.0092838323        0.2196293194       20.0256095467
  H         0.8976994605       -1.8311914233       20.5383525059
  H         2.5456286917       -2.9617240142       18.9175222830
  H         3.1200457629       -1.7263009479       16.7597397241
  C        -0.8979128971       -0.7634193528       15.4463264127
  C        -1.9722930874       -1.3515848772       14.7532746691
  C        -1.9355320420       -1.6246414670       13.3765110217
  C        -0.7756585443       -1.2691671612       12.7317185376
  H        -0.8607590867       -1.3319309258       11.6244159944
  H        -2.7781448935       -1.9851163264       12.8701773011
  H        -2.8305184021       -1.6313988773       15.3829105222
  H        -0.9175624679       -0.5729367256       16.5020008432
  C         1.5868115732       -0.6936409640       11.2457121369
  C         2.5271931775       -1.6263506783       10.9033826733
  C         2.6517096835       -2.0372245530        9.6189117178
  C         1.8432900107       -1.4661997055        8.5976718716
  C         0.9055974346       -0.4604624564        8.9273957083
  C         0.8122849765       -0.0054138938       10.2628530662
  H         0.1189214207        0.8189751097       10.5915097218
  H         0.3237412275       -0.1355972091        8.0753669268
  H         2.1544370189       -1.8089893042        7.5883909410
  H         3.2616035866       -2.8838129471        9.3163663007
  H         2.9633976804       -2.1366229360       11.7887028479
  C        -1.0752885979        7.8676254246       14.8621920722
  C        -2.1183104792        8.5826952188       15.4465094455
  C        -3.0700078633        9.2547259510       14.6086490115
  C        -4.0720295763       10.0291261830       15.2111692119
  C        -5.0356572167       10.7038096157       14.4928526203
  C        -2.1901275070        8.8939070376       16.9331640893
  C        -1.3881814098        9.9419368096       17.4470451442
  C        -1.4575826723       10.3114526794       18.7531623197
  C        -2.3423056662        9.6224961196       19.6656262732
  C        -3.3694988630        8.7597163197       19.0683574385
  C        -3.2483867950        8.3756058917       17.7083130602
  H        -3.9956946101       10.1178439397       16.2725318943
  H        -5.7195699562       11.3941284666       14.9723907615
  H        -0.6913985493       10.5255943820       16.8610811683
  H        -0.8037855564       11.0912694406       19.1602823206
  H        -2.3324125776        9.7767191393       20.7336389161
  H        -4.1656248146        8.2748536623       19.6926077043
  H        -4.0172310760        7.6832377751       17.3409450535
  C        -1.0000022492        7.8496878359       13.3464320908
  C         0.0109200339        7.0818902785       12.7114264892
  C         1.0056108044        6.4903313624       13.4433225775
  C         0.9578903984        6.4705154027       14.9534591636
  C        -0.1167399444        7.0958895796       15.5770659612
  C        -3.1424218279        9.1347180546       13.1861543883
  C        -2.0194700920        8.5388759039       12.5711820807
  C        -1.9759639359        8.7060823857       11.0708322604
  C        -1.1501636307        9.7418844180       10.6253069814
  C        -1.1393789016       10.1986648785        9.3178115931
  C        -2.0752162089        9.6007735879        8.3661191912
  C        -2.8941807545        8.5512780546        8.8012919086
  C        -2.8549639137        8.1548497624       10.1456127946
  H        -3.4266648172        7.2672727731       10.4186057567
  H        -3.6075479858        8.1085369527        8.1526974626
  H        -2.1074542015        9.9824216125        7.3519690099
  H        -0.3665594244       10.8704328129        8.9860997078
  H        -0.4936310325       10.2254512930       11.4182862578
  C        -4.1747640734        9.7995942132       12.4397149075
  C        -5.1315630223       10.4969017616       13.1262980406
  H        -5.9289246607       10.9773600251       12.5735024970
  H        -4.2473471166        9.6838762051       11.3392693371
  C        -0.2365546634        6.8090855950       17.0364892305
  C        -0.8908828527        5.7214061364       17.5492859399
  C        -0.7351399530        5.3618664283       18.9487647000
  C         0.1167319384        6.0978917320       19.7464009161
  C         0.8378594631        7.1649901148       19.2201095609
  C         0.7267095088        7.4354673784       17.8738448584
  H         1.3340398891        8.2475573340       17.5319670203
  H         1.5896157062        7.7020429901       19.8429600442
  H         0.2034609094        5.8431011408       20.7917418751
  H        -1.3171728705        4.4501664228       19.2941043016
  H        -1.5342485558        5.0726712312       16.9173317390
  C         2.0299965590        5.7880355049       15.6648150589
  C         3.0464078184        5.1642142530       14.9964133419
  C         3.0268392225        5.1550019965       13.5349484992
  C         2.0547072133        5.7580939329       12.8177810649
  H         2.0273773169        5.7042384642       11.7611893333
  H         3.7218967395        4.5011956139       13.0851133966
  H         3.8850177311        4.7053825859       15.4990242724
  H         2.0728500363        5.7400397080       16.7622255287
  C        -0.1160148691        6.5782936783       11.2845535722
  C        -0.9884156246        5.5467798231       10.9391627540
  C        -0.9768488337        4.9815657498        9.6723441511
  C        -0.2778337815        5.5858046084        8.6130091180
  C         0.5965547290        6.6500049227        8.8894608288
  C         0.6357069559        7.1640548369       10.2441969653
  H         1.3669978645        7.9507321263       10.4741578528
  H         1.1627924411        7.0496202583        8.0466481224
  H        -0.2020022638        5.0889101571        7.6249247521
  H        -1.6174519166        4.1584979814        9.4309600845
  H        -1.5058372906        5.0899168387       11.8005230023
