140

  C         4.1568968000       -0.1112442323       13.9300410366
  C         5.1364537380        0.5768121525       14.7087056627
  C         6.1874105925        1.2499547570       14.0035385184
  C         7.3173861721        1.7387809250       14.7838291823
  C         8.3290070562        2.3799720988       14.1541093251
  C         5.0297497477        0.7793539619       16.2143608050
  C         4.2926823661        1.9300391362       16.4382565293
  C         4.0193003090        2.4312901453       17.7354674906
  C         4.7635728213        1.8459129461       18.7944270617
  C         5.5945174275        0.7217244609       18.5139412274
  C         5.7030911668        0.1132101071       17.2177551916
  H         7.3105365451        1.5836161288       15.8896630524
  H         9.0948555924        2.9021083944       14.6889287441
  H         3.7473639001        2.3204483524       15.5566164150
  H         3.4332191784        3.3032434963       17.9669350146
  H         4.5832000209        2.1511767927       19.8446240854
  H         6.1643945373        0.2687653763       19.3540324830
  H         6.2186139782       -0.8166125575       17.0940658043
  C         4.2948729388       -0.2385233421       12.4669167132
  C         3.2875096900       -0.9449726837       11.8078613145
  C         2.1986199678       -1.5269002842       12.4435028396
  C         2.1853078370       -1.5168615160       13.8976416566
  C         3.2353807973       -0.9043311234       14.6026826898
  C         6.3638901347        1.1586352073       12.5165455555
  C         5.2925441614        0.5304149000       11.8337938237
  C         5.2055583604        0.7258491050       10.3461100457
  C         4.2697874503        1.6666460439        9.9105674848
  C         4.0730049796        1.9711564724        8.5791156834
  C         5.0404348253        1.5072518312        7.6589291540
  C         6.0425890621        0.5676909423        8.1096729818
  C         6.0939438772        0.2166330190        9.4413783150
  H         6.8104967326       -0.4512950845        9.8304939363
  H         6.7121671143        0.1048218893        7.4424217267
  H         4.9511451080        1.7019584337        6.6153570590
  H         3.3779821450        2.7111083528        8.2193375045
  H         3.5077545913        2.0469909554       10.5863624563
  C         7.4307501924        1.8704424012       11.9467561122
  C         8.3606434175        2.4701349951       12.7718577894
  H         9.0692511495        3.1743758187       12.3845245356
  H         7.4588671497        1.9666850521       10.8627326836
  C         3.2704902266       -1.2666302665       16.0572423700
  C         4.0587609464       -2.4237235673       16.5372982249
  C         4.0603947781       -2.8175339298       17.9058998019
  C         3.1572176001       -2.2061519496       18.8172547732
  C         2.3078573583       -1.1972430939       18.2989244780
  C         2.4066071665       -0.7008572338       17.0138946338
  H         1.7692396681        0.1109109285       16.6652797578
  H         1.6297085963       -0.7012244192       18.9512532681
  H         3.2552318200       -2.4923067891       19.9028043927
  H         4.6163854982       -3.6721867682       18.2190352249
  H         4.6436775942       -2.9431032407       15.7569155672
  C         1.1412882733       -2.2296384465       14.5765244481
  C         0.1308737556       -2.9198130738       13.8929285698
  C         0.1402771223       -2.8665172494       12.4848029571
  C         1.1798934248       -2.3004222499       11.8091627788
  H         1.2441481322       -2.3841160786       10.7736245672
  H        -0.7088221336       -3.3604762584       11.9806013479
  H        -0.6809630717       -3.3594843849       14.4806149313
  H         1.1397773813       -2.1789999640       15.6553254704
  C         3.2942013206       -1.3417029288       10.4321103226
  C         3.9197178056       -2.6384816558       10.2421393192
  C         3.7994083349       -3.3199208271        9.0381239741
  C         2.8917620107       -2.8499333650        8.0829332086
  C         2.2579644531       -1.6355532721        8.2529111829
  C         2.5144789567       -0.8337305745        9.4140467449
  H         2.0004324839        0.0553818434        9.5932456065
  H         1.4767538700       -1.3152014718        7.5475400521
  H         2.6244509165       -3.5027899549        7.2079060584
  H         4.3175028921       -4.2852801805        8.7147003902
  H         4.5238049305       -3.0711546457       11.0261130519
  C         0.5439157098        6.9896206257       14.3044989301
  C        -0.4474772515        7.6846186309       15.0051401010
  C        -1.5790618223        8.1712791841       14.3093255004
  C        -2.7609036907        8.6569292677       14.9751020500
  C        -3.8481762713        9.0494017870       14.2328374893
  C        -0.3013153625        8.0233231683       16.4509403820
  C         0.4700004737        9.1523533956       16.7516013315
  C         0.4543084510        9.5977376226       18.1359727633
  C        -0.4333051724        9.0803739833       19.0833891600
  C        -1.2903178534        8.0037556565       18.7142323226
  C        -1.1572444317        7.4497928031       17.4426586637
  H        -2.8912487972        8.6826258501       16.0601862482
  H        -4.7725608637        9.3435830691       14.7276251913
  H         1.1120192570        9.6251260636       16.0371122321
  H         1.0469463267       10.4658041262       18.4428545242
  H        -0.5032854639        9.4430653519       20.0946341001
  H        -1.9574068961        7.5675256600       19.4218058670
  H        -1.8074924785        6.6295505166       17.1263217791
  C         0.4647628952        6.8023485182       12.8056876376
  C         1.4890958424        6.1242543653       12.1654939411
  C         2.5407111743        5.5276647913       12.9105666924
  C         2.5422223358        5.5610291440       14.3714194500
  C         1.4996564589        6.2607528000       15.0618222232
  C        -1.6084711765        8.2051963084       12.8520011484
  C        -0.5542838976        7.5533098232       12.1501878487
  C        -0.5910793936        7.6368371928       10.6537292745
  C        -0.0446179731        8.7730992258       10.0467131226
  C        -0.2389160224        9.0702312435        8.6406495986
  C        -1.0170726132        8.1477444553        7.9010770581
  C        -1.5771573813        6.9929468831        8.5446482032
  C        -1.3293227707        6.7291796890        9.8654801286
  H        -1.6778130383        5.8470098053       10.3358303883
  H        -2.2192933026        6.3239949668        8.0003065592
  H        -1.3652095438        8.4519327954        6.9158441217
  H         0.0969216457       10.0319340865        8.1686885882
  H         0.5450744872        9.4080716384       10.6820547784
  C        -2.7318316056        8.7059142463       12.1539703453
  C        -3.8083432116        9.1668310429       12.8211118354
  H        -4.7033564553        9.5571523094       12.3145522825
  H        -2.7383320118        8.6374140781       11.0418620907
  C         1.4837881952        6.0102994886       16.5069300153
  C         0.6811098572        4.9699498439       16.9853567803
  C         0.7125675105        4.6501287686       18.3406023045
  C         1.4754237379        5.3949571411       19.2155424480
  C         2.3034666647        6.3656455153       18.7282319890
  C         2.3497345176        6.6971411800       17.3985540924
  H         2.9794348489        7.4942863101       17.0820868146
  H         2.9169288372        6.9662293861       19.3744359304
  H         1.3845825590        5.1133298858       20.2515266332
  H         0.2914382775        3.7335607841       18.7262778964
  H         0.1054435773        4.4666909775       16.1839065293
  C         3.6207196732        4.9171301270       15.0413614321
  C         4.7298510064        4.4442484748       14.3289468945
  C         4.7542149304        4.4759361696       12.9095196197
  C         3.7217986662        5.0172371289       12.2287448406
  H         3.6682761781        4.9541409892       11.1191586780
  H         5.6173140958        4.0656769678       12.3676329579
  H         5.5833162373        4.0241969072       14.8648228530
  H         3.5487610368        4.9950430633       16.1299770635
  C         1.4368316110        5.7791820593       10.7365358843
  C         0.8099526406        4.5644886450       10.4693073223
  C         0.8430471326        3.9597690177        9.2265201859
  C         1.6268728603        4.5264741394        8.2283614215
  C         2.2820595353        5.7026026953        8.5320444649
  C         2.1920944276        6.4398383728        9.7513168450
  H         2.7067636040        7.4257081829        9.8912896837
  H         2.9611291283        6.0393007249        7.7846934470
  H         1.6993680368        4.0251382723        7.3054268110
  H         0.3770876747        2.9505755118        9.1488656902
  H         0.3824821969        4.1185068395       11.3549573091
