140

  C         3.9301474343       -0.5223660092       14.1913760618
  C         4.9024903786        0.2249233869       14.8723850110
  C         6.0150877772        0.7958004514       14.2124234300
  C         7.0787104315        1.6189638183       14.8524716142
  C         8.1120860051        2.2079093674       14.1302013812
  C         4.7303192616        0.5803691651       16.3442770625
  C         3.8473585015        1.6301054399       16.7228518641
  C         3.7422757319        2.0872665464       18.0605825221
  C         4.6639391055        1.6613778756       18.9818958395
  C         5.5894278738        0.7336753710       18.6262410064
  C         5.5854726415        0.1069398665       17.3814408878
  H         7.1814146152        1.4693271933       15.9282279305
  H         8.9183027579        2.7772933962       14.5998269793
  H         3.1011269608        1.8931230068       15.9614336249
  H         3.0794360245        2.8481556126       18.4048048031
  H         4.5542993686        1.9546165886       20.0348567755
  H         6.3865113786        0.4768959435       19.3775437512
  H         6.3203693745       -0.6244722620       17.0758697142
  C         3.8601902409       -0.5157395981       12.6820254937
  C         2.8921584353       -1.3165084057       12.0175582232
  C         1.8087149883       -1.8509782074       12.6754007795
  C         1.7874879249       -1.7745201105       14.0903076641
  C         2.8018338594       -1.1357977847       14.8523962481
  C         5.9204674029        0.8311403409       12.7553040665
  C         4.8223066885        0.2574260620       12.0317031698
  C         4.6814420433        0.7480404903       10.5904563817
  C         3.7392276121        1.8056327131       10.2849848412
  C         3.6918737321        2.2760955646        8.9727389365
  C         4.5509283111        1.6643827692        7.9498196176
  C         5.4798599881        0.6673083346        8.3098373920
  C         5.4697284470        0.1838316431        9.6097884655
  H         6.1362345904       -0.6540696910        9.9434991272
  H         6.1223172092        0.2166365361        7.5352861750
  H         4.5058214025        1.9981810905        6.9262587820
  H         2.9337401715        2.9852144401        8.6247209676
  H         3.1168604577        2.2266380669       11.0107423017
  C         7.0012111912        1.5576841310       12.0451751761
  C         8.0261339483        2.1327997909       12.7569434820
  H         8.7992019108        2.6414349706       12.2130426175
  H         6.8874213021        1.6146628582       10.9829052253
  C         2.8807038832       -1.5926612114       16.2402598144
  C         3.6152806763       -2.7314357732       16.5532141189
  C         3.7593857782       -3.2312166316       17.8214090024
  C         3.0854147833       -2.6316371575       18.9170891851
  C         2.2164438771       -1.5703696518       18.5795971032
  C         2.1763492615       -1.0709325353       17.3035590711
  H         1.5726240288       -0.1896070434       17.0875302030
  H         1.6017551578       -1.0984279198       19.3317630672
  H         3.2768540858       -3.0763464622       19.8838029907
  H         4.3315579707       -4.1455001729       17.9353994862
  H         4.0905830148       -3.2534037191       15.6980239791
  C         0.7394778299       -2.4262790813       14.8634009703
  C        -0.2124000356       -3.1005744235       14.1695399691
  C        -0.1927403812       -3.1736901732       12.7437635869
  C         0.7774687115       -2.6281366969       11.9786939935
  H         0.7863398975       -2.7525818212       10.9080220876
  H        -1.0003939865       -3.6856931705       12.2210333672
  H        -1.0117590215       -3.6293171181       14.5781144711
  H         0.4395670721       -2.2610963516       15.8864605624
  C         3.0856054991       -1.6196019613       10.6007918368
  C         4.1303396662       -2.4352437158       10.3028849988
  C         4.2994327367       -2.8725043634        8.9879853980
  C         3.4869835625       -2.4017000283        7.9852593323
  C         2.4751079054       -1.4991593866        8.2690798138
  C         2.2905859413       -1.1226656152        9.5786532599
  H         1.3982423470       -0.5135814024        9.8612246373
  H         1.8582365695       -1.1246438679        7.5027762202
  H         3.7550575650       -2.7939362162        6.9556880679
  H         5.1147686103       -3.5762179226        8.7762835548
  H         4.7335884281       -2.8228299659       11.1154807405
  C         0.2906995663        6.5823935841       14.2712747175
  C        -0.6642705900        7.4292047276       15.0088831260
  C        -1.7051693809        8.0226516327       14.2427338511
  C        -2.6727335422        8.8546142160       14.8869807268
  C        -3.6457827641        9.5148846982       14.1793148063
  C        -0.4899162243        7.8892894085       16.3884464849
  C         0.3505909390        8.9377037990       16.7213885322
  C         0.4619518566        9.3190117951       18.0886691194
  C        -0.3028726618        8.7516253198       19.0733363029
  C        -1.2584718364        7.7673086969       18.7175572956
  C        -1.2930071570        7.3228451000       17.4016687670
  H        -2.6317046564        9.0833993498       15.9880431629
  H        -4.2726163243       10.1121334480       14.8121439272
  H         1.0873851172        9.2735703005       15.9771877608
  H         1.2808095624        9.9996283124       18.3636718760
  H        -0.2599167554        9.2112725409       20.0820551663
  H        -1.8681909991        7.3494192465       19.5138040767
  H        -1.9591247057        6.4525052474       17.1676221302
  C         0.4060164168        6.7002578996       12.7783922710
  C         1.4397372768        6.0315972754       12.1047008708
  C         2.5044148193        5.4224639135       12.7782616330
  C         2.4053322016        5.3918543583       14.3088605278
  C         1.2574735769        5.7864721497       14.9866809067
  C        -1.7318747681        7.9526075871       12.7935255053
  C        -0.6324524663        7.3725969758       12.1094153042
  C        -0.4089886289        7.8893645709       10.6811737825
  C         0.6346730735        8.7654761019       10.3051718737
  C         0.5954318168        9.4934145107        9.0921564435
  C        -0.4887354913        9.3822267161        8.2313361875
  C        -1.4905635818        8.4350807027        8.5945116594
  C        -1.3716908231        7.6607170379        9.7187187602
  H        -2.0894752779        6.8698403550       10.0105421384
  H        -2.2306151851        8.2161702111        7.8064195783
  H        -0.6886879581       10.0342781356        7.3829331174
  H         1.4325118345       10.1844634607        8.9497534916
  H         1.3605395779        8.8566221418       11.0705622329
  C        -2.8776991788        8.5407391153       12.1027854924
  C        -3.8519593363        9.2029190656       12.8089067596
  H        -4.6371559468        9.7208059437       12.2215201413
  H        -2.9416521589        8.3054921996       11.0787835706
  C         1.1894228732        5.4536161977       16.4370435271
  C         0.2577579771        4.5737722683       16.9081593874
  C         0.1842851029        4.2474847044       18.2913851095
  C         1.1455603761        4.6838876559       19.1675949912
  C         2.1668277222        5.4976111886       18.6707372764
  C         2.1467699086        5.9574215972       17.3566820906
  H         2.7999545564        6.7618848006       16.9433581500
  H         2.9853659083        5.8617295940       19.2710684637
  H         1.1512164602        4.4090146287       20.2436874280
  H        -0.5804593640        3.6047383256       18.6794785988
  H        -0.3750214050        4.0909656713       16.1929577889
  C         3.4577463696        4.6358716255       14.9577601629
  C         4.5305614812        4.1041763664       14.2597598410
  C         4.7188101707        4.2135680230       12.8681735593
  C         3.7082052748        4.8297013453       12.1894375121
  H         3.8386258425        4.9862002338       11.1352867356
  H         5.5814190360        3.8697663378       12.3543277796
  H         5.3432336087        3.6629653258       14.8466726052
  H         3.4876908325        4.6204219110       16.0448932519
  C         1.4047449316        5.6904626739       10.6491919468
  C         0.4031439132        4.7846367745       10.1813974485
  C         0.3925741397        4.3420763817        8.8598263111
  C         1.3433834467        4.7790976672        7.9389446526
  C         2.3211799133        5.6770740984        8.3485139870
  C         2.4081385260        6.1277487585        9.7170846998
  H         3.0819815058        6.8923769776        9.9869830016
  H         3.1741075310        5.8735705166        7.6558399443
  H         1.4501486014        4.3988503072        6.9446199489
  H        -0.3381351629        3.5934876547        8.5769460277
  H        -0.3862354225        4.2991531674       10.7473723148
