140

  C        15.1686437432       -0.6185184848        0.6642230344
  C        16.2123498844        0.0565956532        1.4135610588
  C        17.2849833698        0.6835987367        0.7128416407
  C        18.2112021195        1.5828357113        1.3332924600
  C        19.4696324808        1.8655876745        0.8103084879
  C        16.1721567531        0.3117965146        2.8574077216
  C        15.2869189517        1.3069839665        3.3063216396
  C        15.3373402936        1.6988313807        4.6595135624
  C        16.1627326457        0.9949325471        5.5257511365
  C        17.0201305600        0.0067799914        5.0743481702
  C        17.0614359396       -0.3149713039        3.7541586966
  H        18.0640810682        1.7932909496        2.3842153800
  H        20.2549570236        2.3644617081        1.3923879966
  H        14.5790348282        1.8184269533        2.6745765124
  H        14.5818104407        2.4160581185        5.0856343798
  H        16.0626798028        1.1584179442        6.5780251247
  H        17.6296789429       -0.5221410347        5.7209445878
  H        17.6710352833       -1.0771009093        3.2526928124
  C        15.1523627279       -0.5030264761       -0.8034266625
  C        14.2309178363       -1.3500643151       -1.5240605128
  C        13.1165014920       -1.8540241562       -0.8725148388
  C        13.0749912289       -1.8424938185        0.5836191784
  C        14.1021037930       -1.2950463839        1.3603560301
  C        17.2562604255        0.7939995373       -0.7028182257
  C        16.1577334171        0.2872714137       -1.4701641867
  C        16.0334121495        0.5871858140       -2.9388670853
  C        15.4680863644        1.7580385075       -3.4602852274
  C        15.5940297520        2.0579539110       -4.7877317907
  C        16.2523450071        1.2265661790       -5.7421825975
  C        16.7699140670        0.0070408275       -5.2363294220
  C        16.7304440851       -0.2436777320       -3.8167051227
  H        17.3510048231       -1.1179524048       -3.4909375255
  H        17.3379180862       -0.6318080232       -5.8837335849
  H        16.2606395666        1.6184615660       -6.7894402570
  H        15.1779052779        3.0157522655       -5.1176523076
  H        14.9349700536        2.4580896228       -2.8267211201
  C        18.3875584175        1.4250669976       -1.2994160275
  C        19.4791433527        1.8429141064       -0.6067544489
  H        20.3139312224        2.1696243178       -1.2125035775
  H        18.4895871000        1.5307652911       -2.3986562334
  C        14.1939739458       -1.5430411045        2.8111825565
  C        14.9792474338       -2.6092375995        3.3204423193
  C        14.6674805814       -3.1866253054        4.6117699942
  C        13.7450599376       -2.5942397516        5.4818136766
  C        13.0958489120       -1.4602627655        5.0217851560
  C        13.2045487277       -1.0201418851        3.6839307524
  H        12.6873317090       -0.1330532191        3.4018602718
  H        12.4393658825       -0.9149761083        5.7526769652
  H        13.5321188651       -3.1620168296        6.4089998345
  H        15.1941802369       -4.0946745597        4.9517660577
  H        15.6037691366       -3.1818313970        2.7310085878
  C        11.8933281880       -2.4161880713        1.1713952124
  C        10.9322255208       -3.0594341434        0.5468253750
  C        11.0408343973       -3.2206541658       -0.9027437557
  C        12.0773971093       -2.5910890669       -1.5764255426
  H        12.0865622726       -2.6813927058       -2.6314800304
  H        10.3982528693       -3.8281176370       -1.4548695064
  H        10.0709023104       -3.4499214888        1.0018053106
  H        11.7134502197       -2.3334295496        2.2409091674
  C        14.4217607298       -1.7424672398       -2.9639818100
  C        15.1640760159       -2.8985019014       -3.3460532246
  C        15.3374091070       -3.3561549366       -4.6286032854
  C        14.6326177921       -2.6908923473       -5.6599931355
  C        13.7828890723       -1.5896228414       -5.3369268682
  C        13.7223937301       -1.1000695983       -4.0137770535
  H        13.2351275457       -0.1652533130       -3.7552301856
  H        13.3122222672       -1.0574736160       -6.1620142716
  H        14.6601495281       -3.1716859481       -6.6532597963
  H        16.0250724164       -4.2246075137       -4.8980588990
  H        15.6391376322       -3.5222036971       -2.5431132716
  C        11.5441839230        6.6694876204        0.7084870647
  C        10.5236161110        7.4237347613        1.3915597008
  C         9.4681783107        7.9883859882        0.6445622370
  C         8.3681546950        8.6077436917        1.2463844698
  C         7.2687145113        8.9629959808        0.5096911017
  C        10.4658025257        7.7103259098        2.8712434073
  C        11.2068006252        8.7800187634        3.4564734141
  C        11.1806342076        9.0951577484        4.8283496755
  C        10.3954952284        8.2196054888        5.6338748542
  C         9.5978989464        7.2254821951        5.0615129996
  C         9.6992502286        6.8968912700        3.7099900706
  H         8.3036135661        8.5992585169        2.3273182197
  H         6.4100971952        9.4233847264        1.0518736774
  H        11.9359564411        9.3746568407        2.8365095455
  H        11.7746822101        9.8376748120        5.3194612771
  H        10.3471060272        8.3331008924        6.7560361469
  H         9.0366284593        6.6341646737        5.6872410781
  H         9.1558775449        6.0942228719        3.3359585420
  C        11.5909557350        6.6597062566       -0.7192730773
  C        12.6474262497        6.0442928396       -1.4781671794
  C        13.7778661607        5.5081609121       -0.8213088016
  C        13.5876490638        5.2374091644        0.6069595831
  C        12.4807690902        5.8281133920        1.3387297063
  C         9.4110242598        7.8363971038       -0.8157053121
  C        10.5462920732        7.3455441029       -1.4507467982
  C        10.6749465260        7.6174506870       -2.8906948745
  C        11.5522612688        8.6654131142       -3.2169801001
  C        11.6610245049        9.1324633712       -4.5309338640
  C        10.8485815222        8.6278405381       -5.4893053993
  C         9.9257961197        7.6191053428       -5.2029855817
  C         9.8639045350        7.1192855417       -3.9056502168
  H         9.0813082233        6.4189198430       -3.5935341641
  H         9.1552431822        7.2851625624       -5.9313460645
  H        10.9554722203        9.0590412152       -6.4750193037
  H        12.4143640179        9.8663811172       -4.8251189084
  H        12.3199928750        9.0669868190       -2.5522632862
  C         8.2488047692        8.3450128443       -1.5525796530
  C         7.1360599125        8.7648170771       -0.8280670129
  H         6.2247131923        9.1192634024       -1.3210519884
  H         8.3117050791        8.2374032652       -2.6984721973
  C        12.3362485028        5.3822419871        2.7967826066
  C        11.4016468545        4.3881781384        3.0338960652
  C        11.3495056006        3.7362116880        4.2917244225
  C        12.2106963880        4.1401893762        5.3047033965
  C        13.1841928558        5.0967352949        5.0454979554
  C        13.1939780964        5.7704823605        3.8426335082
  H        13.9045836576        6.5968443588        3.6723458400
  H        13.8715068816        5.2369143952        5.8572366963
  H        12.2320069662        3.6531180736        6.2673974513
  H        10.6275731284        2.9393186601        4.5202632407
  H        10.7199971106        4.1503104845        2.2023136593
  C        14.5155566879        4.4720862315        1.3237927421
  C        15.5085189073        3.8335965246        0.6469567602
  C        15.7710909512        4.0875131790       -0.6939587594
  C        14.9254729271        4.8825295728       -1.3881084229
  H        15.1310878639        5.2249768908       -2.3856783208
  H        16.5547585245        3.4218082135       -1.0664689965
  H        16.2161801541        3.1157285043        1.2191092342
  H        14.3391499147        4.3427931060        2.3702671439
  C        12.4732357167        5.4484471206       -2.8585402323
  C        11.6853143719        4.3059234095       -3.0445553287
  C        11.6530215513        3.6947289545       -4.2939951994
  C        12.2485973485        4.3015953697       -5.3800642054
  C        13.1593269919        5.3685965565       -5.2136753930
  C        13.1997108002        5.9174434671       -3.9019162034
  H        13.7903120933        6.8391976588       -3.7337662849
  H        13.6038186842        5.8241433831       -6.1314585762
  H        12.2749549701        4.0039574060       -6.4219801786
  H        11.0196753578        2.7291195402       -4.6330622050
  H        11.1909436244        3.9095095645       -2.2069327580
