140

  C         1.6941431707        1.0061480193       14.9495438335
  C         2.6383082303        1.8679042351       15.5491145090
  C         3.7632930739        2.3110422612       14.7768283810
  C         4.9668145822        2.7052544552       15.4531175252
  C         5.8873179823        3.4939297156       14.7257835112
  C         2.6525890504        2.2922229803       17.0439052667
  C         1.8547593320        3.3070747346       17.5937992877
  C         1.9877960695        3.7452785660       18.9229223405
  C         2.9389561431        3.1226285331       19.7017461357
  C         3.7475567936        2.1166468213       19.1990946387
  C         3.5250145507        1.6313458294       17.8934507184
  H         4.9857688280        2.7822111632       16.5181849843
  H         6.7416093468        3.8182218869       15.3116609571
  H         1.1546036824        3.8970391587       17.0575154590
  H         1.4639773097        4.6686118099       19.1963449945
  H         3.1152580641        3.6121774555       20.6613005031
  H         4.4871420744        1.5576546772       19.8111775263
  H         4.1985259594        0.8760861806       17.3864770548
  C         1.6222116720        0.9653214558       13.4401854662
  C         0.6152392321        0.1825588863       12.7601622080
  C        -0.4501565309       -0.3413153279       13.5031826508
  C        -0.2998068815       -0.4199770050       14.9378332717
  C         0.7827316734        0.1964049383       15.6592111557
  C         3.5845377886        2.4613425085       13.3282560972
  C         2.4412903109        1.8588150853       12.6768194098
  C         2.4008036346        2.1595397538       11.2035277703
  C         1.7341234311        3.3032759123       10.7903828404
  C         1.9075163822        3.8381062576        9.5424578991
  C         2.6054661343        3.1828140117        8.5395079793
  C         3.1748230374        1.9436939629        8.8804591049
  C         3.2031970491        1.5134995550       10.2514371646
  H         3.8092922512        0.6526842671       10.5276845603
  H         3.6904897589        1.4426290339        8.0950623322
  H         2.5824908610        3.5796148357        7.5473084458
  H         1.4765835527        4.8059264955        9.4220594469
  H         1.1213001613        3.8092680859       11.4808101028
  C         4.5724881316        3.3656467278       12.7104506996
  C         5.6367782450        3.8662098749       13.3831867111
  H         6.2815871892        4.6230567159       12.9937001962
  H         4.2543541398        3.6883960673       11.7232244432
  C         0.8139475948       -0.2064943905       17.0912441737
  C         1.6529656623       -1.2376997440       17.4515576754
  C         1.6776377662       -1.6366851120       18.7983004728
  C         0.7828697829       -1.0340740458       19.6270766117
  C        -0.0766989628        0.0406126995       19.2752616744
  C         0.1376031140        0.6135310860       18.0346887707
  H        -0.3220004604        1.5096116457       17.7443218106
  H        -0.6797453423        0.6833921549       19.8981213137
  H         0.6451644336       -1.4108008066       20.6322137086
  H         2.2033164246       -2.4848914003       19.1103141724
  H         2.3184452684       -1.7828738583       16.7674229856
  C        -1.2715657760       -1.0940805823       15.6544846626
  C        -2.3970824411       -1.6881320618       15.0618869025
  C        -2.5418489841       -1.6586455465       13.6887200583
  C        -1.5407880233       -1.0585524291       12.9457104849
  H        -1.6570144742       -1.0989868663       11.8542754964
  H        -3.3612886201       -2.1233734654       13.1705838720
  H        -3.2026500685       -2.1239269106       15.6120298604
  H        -1.2446886077       -1.2052381482       16.7721770327
  C         0.5373460587       -0.0590737092       11.2529521203
  C         1.1754399167       -1.2223829905       10.7855100462
  C         1.0227191935       -1.5245938242        9.4123886776
  C         0.3106887643       -0.7488030546        8.5826439109
  C        -0.3556638744        0.4202478221        8.9850882856
  C        -0.2899976260        0.7389521767       10.3849137687
  H        -0.8788826397        1.6085387883       10.7470885462
  H        -0.8515062326        1.1042741965        8.2983163430
  H         0.4237016787       -0.9847546556        7.5570806878
  H         1.5809873870       -2.3522989021        8.9390741443
  H         1.5819029487       -1.8917005514       11.5241120522
  C        -2.0502808320        8.1697300535       15.1512069142
  C        -3.0590398392        9.0510428019       15.7772399481
  C        -4.0922604015        9.5916177701       15.0191216478
  C        -5.1248428211       10.3000029446       15.6876691924
  C        -6.2323575742       10.7169470653       14.9722496770
  C        -3.0448123048        9.3144451404       17.2949495880
  C        -2.1751764169       10.3294839185       17.7304159947
  C        -2.1377115771       10.7544244509       19.0824509593
  C        -3.0356929555       10.2011485193       19.9823397777
  C        -3.8905376861        9.1965933616       19.4897984148
  C        -3.9035613197        8.7629864136       18.2103741155
  H        -5.0438625507       10.4953631617       16.7303409054
  H        -7.0140093472       11.2871064905       15.4590595214
  H        -1.3786022225       10.5957106934       17.0491025732
  H        -1.2641938128       11.4580445490       19.3528113512
  H        -3.1246383926       10.5728155297       20.9920886860
  H        -4.4473596768        8.7614889893       20.2949947551
  H        -4.6159057613        8.0344468836       17.8423409972
  C        -1.9753322188        8.1302664054       13.6929717786
  C        -0.8481035680        7.4811741421       13.0179337012
  C         0.1906560732        6.9600365917       13.8011569614
  C         0.0710146751        6.9467635308       15.2587966494
  C        -1.0765494056        7.4124692041       15.9729277295
  C        -4.0570523874        9.5011900340       13.5781442843
  C        -2.9153741800        8.8590419149       12.9687279075
  C        -2.8803166135        9.1533024969       11.4729710396
  C        -2.3063432714       10.3330258898       10.9614191087
  C        -2.2841240834       10.6037333752        9.5757347914
  C        -3.0067815961        9.8087415389        8.6547009609
  C        -3.6760434598        8.7243372878        9.1681291876
  C        -3.6038324636        8.3625345229       10.5581344975
  H        -4.1258172290        7.5041705035       10.9559603945
  H        -4.2564804199        8.0750788969        8.5355056380
  H        -3.1279639334       10.0822395218        7.6087733315
  H        -1.6809723555       11.4814030268        9.2024121107
  H        -1.7291660013       10.9351737808       11.6370619330
  C        -5.2055180936        9.9163218365       12.8671986348
  C        -6.2482167383       10.6119272387       13.5459714212
  H        -7.1489217136       11.0216939010       13.0671859998
  H        -5.2997004233        9.7496698857       11.8282729405
  C        -1.0575730848        7.1828832489       17.4578841521
  C        -2.0410035727        6.2686336643       18.0065145611
  C        -1.9958696298        5.8980732557       19.3323258917
  C        -1.0573385508        6.4814051339       20.2126851945
  C        -0.1385230083        7.3719617279       19.6612428233
  C        -0.1671216672        7.7656569144       18.3216180071
  H         0.6059743219        8.4909536562       17.9746930956
  H         0.5934661354        7.7692419470       20.3108136723
  H        -1.0727464589        6.0774844644       21.2548616998
  H        -2.7521584932        5.2588982792       19.7157566599
  H        -2.6428068101        5.6223742392       17.3233017554
  C         1.1512409143        6.3102751397       15.9698879480
  C         2.3161718354        5.9526809243       15.2995773743
  C         2.4693741973        6.0555524283       13.9134760856
  C         1.4135389878        6.5863983633       13.1746733023
  H         1.4326995694        6.7143254201       12.1175700452
  H         3.3587410898        5.7114061616       13.4167280718
  H         3.1230558105        5.4646646391       15.8034374248
  H         1.0842785636        6.1493579031       17.0776164865
  C        -0.8877076773        7.1728795518       11.5559622836
  C        -1.5863638257        6.0438642004       11.0723245610
  C        -1.5602633921        5.6992540663        9.7550020281
  C        -0.8040145873        6.4529408690        8.8168598032
  C        -0.1054429688        7.5650141204        9.2883511195
  C        -0.1442804369        7.8733923731       10.6371717766
  H         0.2655466488        8.8890616130       10.8806559418
  H         0.5900654934        8.0582927827        8.6778847522
  H        -0.7822002941        6.2795055837        7.7388264096
  H        -2.2490681595        4.8388300810        9.5530165088
  H        -2.2700767994        5.5109737796       11.7800896666
