140

  C         4.5311353842       -1.1924259224       13.9887649593
  C         5.5775138511       -0.4872027077       14.7136260654
  C         6.6827620177        0.0122241247       14.0602931531
  C         7.7651559631        0.6475437246       14.7758278037
  C         8.8124878582        1.2626535820       14.1656714150
  C         5.5021897046       -0.0831288494       16.2132990992
  C         4.8276460315        1.0975643247       16.4983354448
  C         4.9995715358        1.6663871023       17.7938994879
  C         5.7683818370        0.9600805119       18.7263988992
  C         6.3443713332       -0.2511482287       18.4604855070
  C         6.2914722151       -0.7243846661       17.1733296175
  H         7.8277790403        0.6039168332       15.8376452791
  H         9.7347426820        1.4856816396       14.6928458570
  H         4.2363728657        1.5980958453       15.7592932325
  H         4.5599963781        2.7510273574       17.9050354624
  H         5.8755783782        1.2920455468       19.7900402769
  H         7.0093780238       -0.7027857204       19.2442097497
  H         7.0222057267       -1.4608255201       16.8659602253
  C         4.5639501726       -1.1748738569       12.5363707388
  C         3.5521102370       -1.8824178670       11.7961560864
  C         2.4186554591       -2.3423065586       12.4808955380
  C         2.3447833323       -2.2742232107       13.9076373380
  C         3.4660922216       -1.8947632348       14.6755595042
  C         6.6564365501        0.1066260504       12.6116532381
  C         5.6513521795       -0.4883203919       11.8977232946
  C         5.6485695908       -0.2389203161       10.4231017122
  C         4.8534095431        0.7384710887        9.8178571186
  C         4.9266354236        1.0094770192        8.4784238262
  C         5.7658422225        0.2652344579        7.7004505974
  C         6.4932779885       -0.7530588786        8.2232470963
  C         6.4682524444       -0.9880698826        9.6230658031
  H         6.9618174940       -1.7843538806       10.1563263807
  H         6.8849284245       -1.5202624454        7.5374852781
  H         5.6893880550        0.3107546251        6.6004932239
  H         4.2781493771        1.7553070701        8.0719954903
  H         4.0021178393        1.3072905458       10.2393289187
  C         7.7944032824        0.7658783774       12.0054341339
  C         8.8627578597        1.2460573520       12.7424615304
  H         9.7214755686        1.6638907599       12.2354776357
  H         7.8741035266        0.6471464395       10.9163823203
  C         3.4596509503       -2.2392091230       16.1982071655
  C         4.2659757000       -3.4031062130       16.5652424830
  C         4.3038126201       -3.7529070556       17.9369799022
  C         3.6375141711       -3.0606663689       18.9584766883
  C         2.9177273151       -1.9575100668       18.5434190486
  C         2.8050779993       -1.5289982848       17.2188250416
  H         2.2678480866       -0.5681696181       17.0079897091
  H         2.3218063027       -1.4426267075       19.2515112581
  H         3.5396915557       -3.3935014257       19.9832123988
  H         4.9690637928       -4.5109869974       18.2077821334
  H         4.9445330254       -3.8982188593       15.8760496659
  C         1.1864932700       -2.8558831295       14.5450392957
  C         0.1485071977       -3.4495322626       13.8470315034
  C         0.2762018590       -3.5044328199       12.4469881862
  C         1.3524718811       -2.9819238426       11.8443820808
  H         1.3502601167       -3.0126968438       10.7979154929
  H        -0.5497702243       -3.9636189419       11.9778032180
  H        -0.7364393047       -3.9488711510       14.1583177164
  H         1.2618881593       -2.7693745236       15.6196178527
  C         3.6377416551       -2.3688189885       10.3812516517
  C         4.3334279036       -3.5540188856       10.1884983206
  C         4.3006367408       -4.1771948382        8.9261865682
  C         3.5078132090       -3.7047045523        7.9127972446
  C         2.8144875098       -2.4978862330        8.1046520733
  C         2.8404068745       -1.8852629111        9.3562805036
  H         2.2740355206       -0.9532006361        9.4567907061
  H         2.1291591383       -2.0834621264        7.3358692689
  H         3.5721154228       -4.1839129990        6.9524444257
  H         4.9250260727       -5.0769288807        8.7420315172
  H         4.8195351290       -3.9272459165       11.0609381805
  C         0.9512819294        6.2113536740       13.7540024537
  C        -0.0789821150        6.9380790790       14.5031072818
  C        -1.2508723503        7.4455604499       13.8397988228
  C        -2.2924728777        8.0278669208       14.5604139668
  C        -3.3832259104        8.5297109806       13.9310777468
  C        -0.0293296611        7.2932555888       15.9364835762
  C         0.9302260433        8.1230724332       16.4376513002
  C         0.8807715048        8.5310416155       17.8357126357
  C        -0.1716526980        8.2045671655       18.6580351464
  C        -1.0433780226        7.2053655269       18.1699115998
  C        -1.0125562414        6.7611994806       16.8506698526
  H        -2.1233284175        8.2031981779       15.5816823402
  H        -4.0783911288        9.1871274625       14.4274374644
  H         1.7876827871        8.4307281091       15.8512069118
  H         1.7327466319        9.2431971360       18.1067740345
  H        -0.3255529236        8.4969047074       19.7057318191
  H        -1.8801887701        6.7078753549       18.7308512352
  H        -1.6966906028        6.0288197500       16.4299293113
  C         0.9015100534        6.2010138365       12.3017268461
  C         1.8836147603        5.4898875002       11.5707144311
  C         2.9388891168        4.8263331057       12.2805494762
  C         3.0265595309        4.8744236351       13.7200954251
  C         2.0331717964        5.5064070844       14.4256384227
  C        -1.3324428546        7.3091042621       12.4177197250
  C        -0.2151869357        6.8971626462       11.6653274829
  C        -0.1929126917        7.2849569540       10.1925452130
  C         0.4372405723        8.4696427095        9.8353792569
  C         0.5273699705        8.9286357831        8.4866582044
  C         0.0418998444        8.0608728445        7.4818868528
  C        -0.6239673804        6.8534921841        7.8662153925
  C        -0.7683847306        6.4654305315        9.1950395603
  H        -1.3728141593        5.6138903050        9.4602369975
  H        -0.9857664857        6.2109483834        7.0914961692
  H         0.0884223084        8.2535434296        6.4169535059
  H         0.8881930693        9.8992971987        8.2854242955
  H         0.9091461986        9.0421108557       10.5846450815
  C        -2.5023994456        7.8155675732       11.7772316715
  C        -3.5140759653        8.3450854326       12.5377816234
  H        -4.3627319942        8.8420631551       11.9679051582
  H        -2.5902764765        7.7278083232       10.7395828840
  C         1.9119363737        5.1342979378       15.8343861288
  C         0.9298204015        4.1633958012       16.1918279440
  C         0.7368516429        3.8154188383       17.5190058274
  C         1.5711431162        4.3341302130       18.5204897055
  C         2.6009820722        5.2214352452       18.2545346984
  C         2.7836626760        5.5549849321       16.8841580889
  H         3.6489270694        6.1031745944       16.6304011059
  H         3.3560094638        5.5479297768       19.0047683159
  H         1.3230773380        3.9808566425       19.5770656002
  H         0.1063367789        3.0256553788       17.8160784238
  H         0.2990312727        3.8013976990       15.3843059795
  C         4.0991708448        4.1853632297       14.3985396786
  C         5.0992981708        3.5240679785       13.7304863973
  C         5.0672325242        3.4505399435       12.2881372098
  C         4.0484221824        4.1583815042       11.6200286748
  H         4.2369669371        4.2826824492       10.5260959121
  H         5.8008247588        2.8218322823       11.7918755833
  H         5.8628561052        3.0386493339       14.3290460261
  H         4.1057221047        4.2482239050       15.4557642494
  C         1.9032189974        5.1975785070       10.1678977069
  C         1.2717479433        3.9575362453        9.7507984386
  C         1.4254697270        3.4576405024        8.4492343647
  C         2.2109229343        4.1635723493        7.5008468785
  C         2.7594433598        5.4450032483        7.8519504687
  C         2.5783162905        5.9106264680        9.1870479699
  H         3.0591326619        6.8446974984        9.4379171148
  H         3.4434489831        5.9758586966        7.2185630044
  H         2.2585113315        3.8065717074        6.4719832067
  H         1.0198164058        2.4520397469        8.1772160679
  H         0.6748099796        3.3479214933       10.4632094392
