140

  C         4.4209607294       -0.7010023018       14.0488360945
  C         5.4826736887        0.0709907505       14.7281125523
  C         6.5736237986        0.5711146670       13.9987058868
  C         7.6668870205        1.1728407971       14.7414597228
  C         8.7165296948        1.7003921528       14.0175565565
  C         5.4113654434        0.4247624581       16.1316110655
  C         4.6332408667        1.5079950292       16.4742768406
  C         4.6581344521        1.9953973106       17.8081026478
  C         5.3075201991        1.2647747880       18.8264437606
  C         5.9753332058        0.0955493326       18.4690022455
  C         6.0810930182       -0.2554396391       17.1365799619
  H         7.6386818568        1.3201811305       15.8341364877
  H         9.5463938462        2.2458765833       14.5494635825
  H         4.1850594249        2.0349383435       15.6803597878
  H         4.2588339660        2.9152375579       18.1819699022
  H         5.3050288562        1.6087379386       19.9196208488
  H         6.5050153719       -0.4637547956       19.2419800063
  H         6.5734403696       -1.2400145711       16.9114814239
  C         4.3220910259       -0.6418562600       12.5659754779
  C         3.3269422416       -1.3419472961       11.9450237180
  C         2.2961400622       -1.9417081451       12.6421230370
  C         2.3118967154       -1.9615169729       14.1079162317
  C         3.5076088257       -1.5237179936       14.7290186635
  C         6.5316653679        0.4948862541       12.5806384813
  C         5.4151079490       -0.0080644940       11.8408505124
  C         5.3477422405        0.5111827489       10.4516513023
  C         4.5494366268        1.6982448531       10.1962014582
  C         4.2583073686        2.1432058566        8.9188948997
  C         4.9770387882        1.6111054581        7.8577407057
  C         5.9342850691        0.6078399640        8.1405945876
  C         6.0623748360       -0.0005507241        9.4195500286
  H         6.7201582828       -0.8332751562        9.6262021660
  H         6.5027732533        0.2822755683        7.2450311597
  H         4.9677333936        1.9834386969        6.8367832555
  H         3.6486179304        3.0077293067        8.8469611885
  H         4.0213998887        2.2247082467       10.9985261185
  C         7.6958774681        1.0195274206       11.9289472913
  C         8.7323441076        1.6235616323       12.5842347605
  H         9.4935565335        2.0179453720       11.8979173072
  H         7.8757709629        1.0364308396       10.8748685285
  C         3.5249339673       -1.8520248130       16.2330277691
  C         4.2241520762       -2.8997115079       16.7902176904
  C         4.1205861493       -3.2483358526       18.1855853211
  C         3.3825839295       -2.5109400472       19.1073707315
  C         2.6965105943       -1.3700942737       18.5774387586
  C         2.7307420192       -1.1512969216       17.1790969316
  H         2.0967221230       -0.2507691768       16.7820480922
  H         1.9767531638       -0.9081511626       19.2548514879
  H         3.1572893207       -2.6940544055       20.1680823944
  H         4.5409934733       -4.1781958684       18.4801174373
  H         4.8955278132       -3.4735047996       16.1227621739
  C         1.2398714647       -2.5362396859       14.8468781058
  C         0.2721036597       -3.2048431644       14.1021455526
  C         0.1985048788       -3.1360566503       12.6665265886
  C         1.1215297963       -2.4873302849       11.9036986828
  H         1.1011660867       -2.4169088898       10.8452632946
  H        -0.6162292426       -3.6513054958       12.1550595540
  H        -0.4009554536       -3.8821171464       14.6222871198
  H         1.2727732709       -2.6790016654       15.9173105422
  C         3.3455455300       -1.6198461433       10.4691109995
  C         4.0342981257       -2.7198717280       10.0929092251
  C         3.9793777404       -3.1459244114        8.7051736326
  C         3.1699502629       -2.4437629092        7.8396814842
  C         2.4732012153       -1.3392999644        8.2553540832
  C         2.4855036457       -0.9413762640        9.5809332143
  H         1.8254370849       -0.1268109817        9.8966343552
  H         1.7468547239       -0.9531813173        7.5168818921
  H         2.9518583194       -2.8161116011        6.8440655915
  H         4.4837816171       -4.0646956340        8.4537128882
  H         4.5565764031       -3.3840069978       10.7934939574
  C         0.9154807784        6.8064470663       14.0947634876
  C        -0.2942837996        7.2671115373       14.7507472142
  C        -1.3764919119        7.6488917660       14.0031888531
  C        -2.5641159461        8.1104428655       14.6301260893
  C        -3.6505086748        8.6165721786       13.9703538150
  C        -0.3768591902        7.6674577842       16.1903247862
  C         0.3832108035        8.7511224541       16.6859868210
  C         0.3724480900        9.1183219721       18.0098801585
  C        -0.3520712750        8.3899513851       18.9342713882
  C        -1.1041279685        7.3568153133       18.4570379809
  C        -1.1169281498        6.9141620530       17.1652574391
  H        -2.6566936632        8.1026320042       15.7302290989
  H        -4.5724153812        8.9336206274       14.4830098963
  H         0.9381794067        9.4358382741       16.0283599921
  H         0.9383631066        9.9603419048       18.3475371429
  H        -0.3663474408        8.5373475757       19.9945800628
  H        -1.6660221910        6.7749901609       19.1815724967
  H        -1.7745804054        6.1050340696       16.7927838008
  C         0.8596079776        6.7262797382       12.6393860513
  C         1.9178878879        6.0457011928       11.9291242798
  C         3.0850292461        5.5962201253       12.6391070929
  C         3.1643412119        5.5973929782       14.0767242002
  C         2.0306483551        6.1569680995       14.7755734842
  C        -1.3054656567        7.7739604220       12.5539482996
  C        -0.1732697991        7.3796857872       11.8906156668
  C        -0.0271198307        7.7613547878       10.4639287158
  C         0.7246531828        8.8593556766       10.0464017939
  C         0.5078319439        9.3904679847        8.7753588416
  C        -0.3942551909        8.7735409042        7.9072009930
  C        -1.1558224016        7.6599209883        8.3144528745
  C        -0.9987767063        7.1859146836        9.5916518602
  H        -1.4779343943        6.2970394595        9.9733853396
  H        -1.8816225478        7.2088300735        7.5973184311
  H        -0.4872487769        9.1934011886        6.8809976016
  H         1.0342570902       10.2686917650        8.3435433432
  H         1.4759053463        9.2880091525       10.7363131155
  C        -2.4294887163        8.4380534051       11.8759124065
  C        -3.5289431557        8.8240274530       12.5855468719
  H        -4.3796398979        9.3276310750       12.1155285020
  H        -2.3929422209        8.6649020432       10.8315407152
  C         1.9090107201        5.8004029885       16.1970517253
  C         1.0324215084        4.7052578012       16.5519801936
  C         0.9661399443        4.3737434036       17.9137122824
  C         1.7688028293        4.9222959716       18.8676992936
  C         2.5280910361        6.0406961733       18.4978664538
  C         2.5755594557        6.4724449177       17.2009299689
  H         3.1644731445        7.3636700868       16.9881693903
  H         3.0898938143        6.5998731715       19.2054896690
  H         1.7241321700        4.5992849049       19.9252001473
  H         0.2455545236        3.6045802600       18.2150502980
  H         0.2975579708        4.3971385595       15.7574778714
  C         4.1045997059        4.7426305733       14.6919026863
  C         5.0195598314        4.0358340074       13.9893379836
  C         5.1131216081        4.1511500104       12.6014581066
  C         4.1701562589        4.9477546772       11.9621622890
  H         4.0397312731        4.8360311034       10.8655408142
  H         5.7810242519        3.5371602313       12.0179538443
  H         5.7302289202        3.3400280734       14.5091912262
  H         4.0427716761        4.6894503177       15.7782043034
  C         1.7786995571        5.6389107359       10.5149516090
  C         0.9178932341        4.5845582746       10.1717143349
  C         0.9302658586        4.2320352346        8.8392481685
  C         1.7918439899        4.7942405482        7.8791704684
  C         2.6952257558        5.7514154923        8.3096676727
  C         2.5906679053        6.2498668181        9.5758902219
  H         3.1907816916        7.1386093360        9.8488358931
  H         3.2578263332        6.2558744442        7.4985898557
  H         1.7227739108        4.5688944263        6.8645853722
  H         0.2776334564        3.4954101128        8.4397417862
  H         0.2181800775        4.1791186342       10.9135792054
