140

  C        15.3480007481       -0.1833848229        2.3804410462
  C        16.4511332985        0.4542278551        3.1138911115
  C        17.4170548330        1.1320099789        2.3962456060
  C        18.4468902748        1.8444480499        3.0657452238
  C        19.3772060419        2.6481341917        2.4285748036
  C        16.2798981288        0.8135763870        4.5985314322
  C        15.3214522742        1.7442373117        4.9618062983
  C        15.2949066984        2.2384561505        6.2507510552
  C        16.2654456868        1.8508670609        7.1948495673
  C        17.1978909064        0.8826200308        6.7830845253
  C        17.2239608444        0.3759236673        5.4991769898
  H        18.4684182726        2.0822317040        4.1849325740
  H        19.9801745101        3.3031978479        3.0514398970
  H        14.5401931102        2.0889875066        4.2987294903
  H        14.6470239718        3.0184007060        6.5183259036
  H        16.1597583056        2.2584456024        8.1811030622
  H        17.9318726794        0.5716272316        7.5482959560
  H        17.9603809072       -0.2914906515        5.0559712463
  C        15.3120224121       -0.0715467519        0.8993011460
  C        14.1883182073       -0.6305226770        0.2302584567
  C        13.0777383529       -1.1968348423        0.9601883018
  C        13.2208998762       -1.3869962123        2.3907515222
  C        14.3158348681       -0.9076364707        3.1004698257
  C        17.4875506926        1.1654415298        0.9179346961
  C        16.4446748426        0.5255083100        0.2448105737
  C        16.4301405778        0.9206591146       -1.2073578417
  C        15.5645052087        1.9340374387       -1.6310876941
  C        15.5820100524        2.2954237428       -2.9778721454
  C        16.3360790101        1.5389939508       -3.8788313555
  C        17.0966611032        0.4857485648       -3.4406689679
  C        17.1336630046        0.1682607810       -2.1108479362
  H        17.8394967906       -0.5660080120       -1.7989939638
  H        17.5619608651       -0.1057554778       -4.2281017678
  H        16.3127264437        1.8420223302       -4.9190309360
  H        14.8166747760        3.0596293233       -3.2660316499
  H        14.8829638998        2.4098647556       -0.9170777836
  C        18.5311179726        1.9198259845        0.2886715360
  C        19.4508940998        2.6249086845        1.0254652657
  H        20.1152573518        3.4507768386        0.6075864400
  H        18.6195269077        1.9250374500       -0.8458293506
  C        14.3017611026       -1.2194446673        4.6122028904
  C        15.0792614573       -2.2989214010        5.0519564174
  C        15.1612493879       -2.6456262884        6.4266499425
  C        14.3828967363       -1.9600340900        7.3041786791
  C        13.5817391837       -0.9483927761        6.8804065549
  C        13.5281678517       -0.5118112695        5.5826905309
  H        13.0872029308        0.3888786585        5.2997984773
  H        12.8663274108       -0.5329936974        7.5961736458
  H        14.3251897274       -2.1672440698        8.4359136947
  H        15.7169044949       -3.4884217725        6.7841924637
  H        15.7231786732       -2.7886482862        4.2884699026
  C        12.2067567824       -2.1132170210        3.0868995540
  C        11.1882626213       -2.6536669043        2.3281883890
  C        11.0214448347       -2.4391946304        0.9243797660
  C        11.9742197031       -1.7118912723        0.2159677470
  H        11.8359006492       -1.6629163528       -0.8681675888
  H        10.1116847649       -2.8065343435        0.4423940007
  H        10.3594935020       -3.2179453477        2.8246623615
  H        12.3348645454       -2.3187469176        4.1267015598
  C        14.3660689545       -1.1057430768       -1.1566187945
  C        15.2552407299       -2.1153277117       -1.5504049680
  C        15.3740758795       -2.5512246049       -2.8628464241
  C        14.4792203858       -2.0929148772       -3.8488264075
  C        13.5281575392       -1.1147613782       -3.4764534620
  C        13.5488966981       -0.5503109738       -2.1926140688
  H        12.8107385403        0.1257063408       -1.8867427338
  H        12.8147502525       -0.6407050765       -4.1951544025
  H        14.4574166537       -2.4266014439       -4.8615956061
  H        16.1545182053       -3.2284712720       -3.0771673750
  H        15.9181154971       -2.5445996273       -0.8424382119
  C        12.0153621472        7.1774143454        2.4677392106
  C        10.9431533717        7.8310367551        3.1137030671
  C         9.8429664445        8.4029750376        2.4399169660
  C         8.8290659516        9.0811676762        3.1490820762
  C         7.8267125614        9.7815371210        2.5399369262
  C        11.1165973262        8.1251276700        4.5405283593
  C        11.7961973507        9.2296425688        4.9455497684
  C        11.7473993588        9.5858672468        6.3044640388
  C        11.0072525039        8.8195293517        7.2043942985
  C        10.3492726597        7.6763703294        6.7594800549
  C        10.3695117794        7.3722773394        5.3929948539
  H         8.8917869440        8.9614213549        4.2178615386
  H         7.0664531889       10.2830239569        3.0707328476
  H        12.3235803908        9.9444481967        4.2853631259
  H        12.2577907522       10.4456529802        6.6771525020
  H        10.9079924096        9.0860510849        8.2524105512
  H         9.7665216348        7.0379179201        7.4566537907
  H         9.8310831339        6.5271479410        5.0666572538
  C        11.9682283000        7.1293560952        1.0046931040
  C        12.9583513588        6.3249453450        0.3061532943
  C        14.0667877429        5.7102140912        0.9693838890
  C        14.1826260021        5.8818109302        2.3848741909
  C        13.0988320874        6.4638284185        3.0831725224
  C         9.8088612325        8.4345815067        0.9985114921
  C        10.8856855228        7.8252597089        0.2546029030
  C        10.9529750658        8.1049876770       -1.2376881985
  C        11.5990664188        9.2345267173       -1.7266547198
  C        11.5100304131        9.6703301254       -3.0692171631
  C        10.5676110121        9.0225997747       -3.8815194811
  C         9.7639858412        8.0070313570       -3.3775798226
  C         9.9681632042        7.5750484989       -2.0716556299
  H         9.2652978726        6.8995201942       -1.5295911640
  H         8.8827530374        7.7499116997       -3.9023121061
  H        10.4573354969        9.3837070220       -4.8860517791
  H        12.0221878000       10.5595899524       -3.3775983338
  H        12.3507867157        9.6573593212       -1.0291353087
  C         8.7354904613        9.1901926870        0.3617164995
  C         7.8133396809        9.8310027710        1.1071632987
  H         7.0888884935       10.3989568534        0.6363403767
  H         8.6298982799        9.1320242016       -0.7005841463
  C        12.9958801795        5.9795738850        4.5241413312
  C        12.0939850527        4.9558846832        4.9889267189
  C        12.1391834651        4.5618786791        6.3373165531
  C        12.9303432625        5.2144742895        7.2659704597
  C        13.7730797968        6.2618486151        6.7796142166
  C        13.8223772273        6.6338588397        5.4574675125
  H        14.5151403850        7.3617703792        5.0958715820
  H        14.2987155989        6.8809437209        7.5126389691
  H        12.6911973407        5.0405976841        8.2879557408
  H        11.4639767736        3.7321169320        6.6070705050
  H        11.3393169335        4.5785978960        4.3232619124
  C        15.3013166023        5.2677232029        3.1114699932
  C        16.1931099588        4.4761108861        2.3952731263
  C        16.1035349120        4.4709310314        1.0083599505
  C        15.1176232834        5.0394541353        0.2344206816
  H        15.1459105640        4.9592438986       -0.8327105502
  H        16.7145055264        3.8544047351        0.4264767759
  H        17.0069221908        4.0223066485        2.9289866240
  H        15.1664549247        5.1636404294        4.1831555026
  C        12.7662684412        5.9848428470       -1.1013434867
  C        11.7609867835        5.0278382235       -1.3651349734
  C        11.7382927327        4.4397790569       -2.6223056123
  C        12.4545580002        4.9661807953       -3.6447480032
  C        13.3946883226        5.9906995370       -3.4378443959
  C        13.5452087841        6.5608938642       -2.1427213061
  H        14.1429924179        7.4787108371       -1.8595830285
  H        13.9476487532        6.5973359240       -4.1971182583
  H        12.2061445045        4.7286178071       -4.6676672305
  H        11.0662128150        3.6234170175       -2.7160073125
  H        11.1828580152        4.7377192549       -0.4554340586
