140

  C         4.9686238319       -1.4292575185       13.7036736896
  C         6.0667484200       -0.7599109681       14.4035361739
  C         7.0391570330       -0.0646948747       13.6260085681
  C         8.1460848084        0.5914580817       14.2881928962
  C         9.1439988890        1.1752702387       13.6066982379
  C         6.1372461406       -0.3989397398       15.8899276531
  C         5.3858702155        0.6605494943       16.2874630939
  C         5.4019042259        1.0145594347       17.6667180475
  C         6.1903379153        0.1890410751       18.5699155795
  C         6.8665154471       -0.9590122658       18.1289668446
  C         6.8353193056       -1.2123592267       16.7830272090
  H         8.2711810337        0.4095897017       15.3851387905
  H         9.9446193482        1.7146068888       14.1402749155
  H         4.7318116038        1.2769288754       15.5404626933
  H         4.7103283226        1.7805215117       18.0246737495
  H         6.2474630722        0.5283130595       19.6107735126
  H         7.4750689138       -1.6042215407       18.6854559970
  H         7.5019472823       -1.9816324818       16.4917176088
  C         4.9316108194       -1.3880487342       12.2712518190
  C         3.9353135013       -2.1837570256       11.6146413020
  C         2.8551560709       -2.8221006896       12.2759647711
  C         2.8912867512       -2.7159458078       13.6704795164
  C         3.9868843873       -2.2192248313       14.4243645437
  C         6.9781752045       -0.0077953781       12.2392915306
  C         5.8950563184       -0.5400056166       11.5182453439
  C         5.9692206578       -0.2590909836       10.0361722036
  C         4.9418056366        0.5555913548        9.5774287236
  C         4.8589686556        0.9224014366        8.2239723331
  C         5.8922018729        0.6127252998        7.3495478982
  C         6.9279029945       -0.2985514837        7.8018313419
  C         6.9252808194       -0.7265679603        9.1203746846
  H         7.6916304796       -1.3995974828        9.4569107714
  H         7.7613443221       -0.5949806362        7.1907348938
  H         5.8314234788        0.9837866307        6.3273934471
  H         3.9924117451        1.5487863462        7.9041484642
  H         4.0978494701        0.8335241390       10.2002755156
  C         7.9975307426        0.6943609981       11.5201468209
  C         8.9648501861        1.4064567208       12.2009753657
  H         9.6604164250        1.9559566128       11.6302662569
  H         7.9174406151        0.8446052366       10.4773309440
  C         4.1049325007       -2.6788416954       15.8423898183
  C         4.9348781819       -3.8482832528       16.1016347027
  C         4.9557940325       -4.3667864826       17.4051659979
  C         4.3423496678       -3.7053398333       18.4664936842
  C         3.5510103223       -2.5812145328       18.2175303355
  C         3.4048257888       -2.0411660643       16.9078388013
  H         2.7785480661       -1.2133136066       16.7412037267
  H         3.0945022821       -2.0451639371       19.0080661882
  H         4.2023929858       -4.1456625151       19.4716493286
  H         5.5747043968       -5.2290800093       17.7419233166
  H         5.3734462910       -4.3290458719       15.2337004644
  C         1.8168687501       -3.3176000861       14.4107831082
  C         0.6883874614       -3.7925577516       13.7734130531
  C         0.6388093024       -3.8660723530       12.3549106278
  C         1.7650048374       -3.5089260893       11.6356280740
  H         1.7404300328       -3.6381950858       10.5507833219
  H        -0.2085949895       -4.3722657425       11.8787981039
  H        -0.1917077051       -4.1300723266       14.3739302862
  H         1.8784813711       -3.3259342937       15.4599090696
  C         3.9795628820       -2.5371810109       10.1979110724
  C         5.0758714117       -3.2721883329        9.7217425534
  C         5.2583332082       -3.5220156576        8.3696009428
  C         4.2811861510       -3.1021116415        7.4536678116
  C         3.1868109801       -2.3523401945        7.8844748692
  C         3.0454553194       -2.0655372817        9.2348334974
  H         2.2564732717       -1.4345310690        9.6596965654
  H         2.4252116456       -1.9949059548        7.1245664829
  H         4.4457629523       -3.3418746019        6.3461774589
  H         6.1328258890       -4.0373372749        7.9216067736
  H         5.8758932815       -3.6700375487       10.3970588743
  C         1.5951323064        5.9234722857       13.8169077692
  C         0.5442667728        6.6349604622       14.5628649081
  C        -0.5564217264        7.1789802672       13.7879592027
  C        -1.5465943034        7.8258556594       14.5696521396
  C        -2.6194277893        8.4733335721       14.0272512357
  C         0.6743098411        6.9117049762       16.0436632122
  C         1.3517782562        8.0450711420       16.4900429538
  C         1.1176259774        8.4420840151       17.8016174330
  C         0.3593401082        7.6880076557       18.7234176123
  C        -0.0955208952        6.4110360660       18.3180271824
  C         0.0149814625        6.0555939850       16.9713509767
  H        -1.2641800333        7.7594421007       15.5889690640
  H        -3.4166559005        8.9180056557       14.6022657586
  H         1.7637840961        8.6824817712       15.6927489189
  H         1.5925066450        9.4187365036       18.1382996948
  H         0.2404095874        8.1179091680       19.7284810456
  H        -0.6436423037        5.7590213050       19.0295035846
  H        -0.6207607000        5.2217499432       16.6397483665
  C         1.5406866600        5.8680438530       12.3475425013
  C         2.4502989645        5.0681740378       11.5963328777
  C         3.5055044763        4.4655369467       12.2615620020
  C         3.6375603300        4.5825103890       13.6717747418
  C         2.6554921851        5.1748442528       14.4263109753
  C        -0.6437870247        7.1043775441       12.3554794124
  C         0.4323223951        6.5375401549       11.6579367845
  C         0.4528382162        6.7945950701       10.1134033594
  C         1.1925778244        7.8922810084        9.7191944317
  C         1.0342923114        8.4859181289        8.4794958960
  C         0.0522138517        8.0357763378        7.5578471704
  C        -0.7341047477        6.9259700503        7.9546613524
  C        -0.5079996359        6.3419900337        9.2111251657
  H        -1.1756079073        5.4291087054        9.4022184877
  H        -1.3209819374        6.4560271740        7.2213058403
  H        -0.0426428745        8.5230659169        6.5968579089
  H         1.6060727332        9.3592726435        8.2018907735
  H         1.9066905642        8.2554285308       10.3903556388
  C        -1.7645329925        7.8232521349       11.7947183752
  C        -2.7939771031        8.4122246741       12.6091177500
  H        -3.6728688543        8.9279849664       12.1847375935
  H        -1.7929498491        7.9248025090       10.7182380832
  C         2.7197497963        4.9702325583       15.9072555964
  C         2.2157542384        3.8412710736       16.5157541978
  C         2.3724578744        3.4900624803       17.8809892952
  C         3.1127971197        4.3403430388       18.6776254669
  C         3.7420586861        5.4715754840       18.0843895849
  C         3.6075459902        5.7394737709       16.7162564717
  H         4.0341786577        6.5642241189       16.2125256729
  H         4.4248087254        5.9795732137       18.7244564190
  H         3.2168026120        4.1829619460       19.7495210853
  H         1.7840369634        2.7153096499       18.3639514510
  H         1.7156434749        3.0717188219       15.9272088654
  C         4.7112030030        3.8255942036       14.2634318560
  C         5.7019503689        3.2160672815       13.5881949898
  C         5.5352955459        3.1306094905       12.1778076123
  C         4.4917833532        3.7142991982       11.5197027695
  H         4.3861321616        3.5274676206       10.4304546465
  H         6.2215620294        2.5477183605       11.6183517529
  H         6.5326021649        2.7162506170       14.0213847812
  H         4.7821422612        3.9041705566       15.3573398366
  C         2.4167545425        4.7635004134       10.0526380109
  C         1.5729029928        3.7622296490        9.5409306615
  C         1.7795736238        3.3498356847        8.2408661907
  C         2.7741535611        3.9222962107        7.4030742018
  C         3.5120136600        4.9537619011        7.9520571116
  C         3.3175487944        5.4241689377        9.2477546804
  H         3.8875504666        6.2230403302        9.6863426779
  H         4.2613006009        5.4541039400        7.3119309349
  H         2.9692651505        3.6235759315        6.3409461851
  H         1.1001661523        2.5500367291        7.9589532872
  H         0.8437806134        3.2698552634       10.1531180947
