140

  C        15.7119521447        0.0760262594        2.3986389582
  C        16.7957113340        0.7826794284        3.0489032927
  C        17.8314427812        1.3435300989        2.3100073714
  C        18.9620170942        1.9940519025        2.9220084180
  C        19.8617496282        2.7441461698        2.1739264417
  C        16.6033534495        1.1261206960        4.4747671410
  C        15.5661882111        1.9788040096        4.8552871465
  C        15.4067569061        2.4160905171        6.1222948665
  C        16.3916030358        2.0913918002        7.0790356241
  C        17.3854241004        1.1350831650        6.7575469556
  C        17.4644054324        0.6899791680        5.4824414394
  H        19.0262825361        1.9741589614        4.0564642744
  H        20.6970971239        3.3203335784        2.6591134571
  H        14.7910504386        2.3329765984        4.1303081299
  H        14.5373478901        3.0664235571        6.3981845215
  H        16.2992902569        2.4567040211        8.1416875043
  H        18.1249692723        0.8712388241        7.5780103729
  H        18.2985240109        0.0791507561        5.1724463376
  C        15.6429715909        0.1075235353        0.9229319683
  C        14.7367738212       -0.7092523649        0.2292925642
  C        13.6526357776       -1.2838232848        0.9361716056
  C        13.5701196331       -1.2384009976        2.3687516376
  C        14.7499529945       -0.6557432450        3.0794406048
  C        17.7557714979        1.4137158494        0.9073827418
  C        16.6797650185        0.7952693048        0.2111438427
  C        16.4813016947        1.1101253582       -1.2985801902
  C        15.4508526270        1.9980552332       -1.6571633127
  C        15.4144767263        2.5920175290       -2.9393158396
  C        16.4157385741        2.2134394414       -3.8383740991
  C        17.3284887905        1.1828005871       -3.5422432476
  C        17.3715514494        0.7380055243       -2.2498525468
  H        18.0992589465        0.0390732393       -1.8650994810
  H        17.9680371772        0.8454073390       -4.3435327136
  H        16.3077092251        2.6096063883       -4.8256783781
  H        14.7332118454        3.3610210916       -3.2268306269
  H        14.6890317150        2.3660540967       -0.9725459349
  C        18.6780736274        2.2127392095        0.2040751167
  C        19.7576424385        2.8315646339        0.7996162537
  H        20.3480363762        3.5551509418        0.2290881179
  H        18.5686687077        2.4615436336       -0.9168041002
  C        14.9180023502       -1.1812100852        4.4927356892
  C        15.6549282883       -2.3499350110        4.9047908390
  C        15.5573687540       -2.7441389198        6.2362481998
  C        14.7725730349       -2.0936054809        7.2069062367
  C        14.0953582160       -0.9504551172        6.7649196325
  C        14.1601750859       -0.5532589029        5.4515736182
  H        13.4891247990        0.3207366448        5.1463803083
  H        13.4944738712       -0.3736723975        7.4759649563
  H        14.7959730610       -2.3473719847        8.2283878828
  H        16.1518556463       -3.6330860856        6.4950028633
  H        16.1968952968       -2.9377394327        4.0533611671
  C        12.4754008075       -1.8155644686        3.0291788605
  C        11.4930233516       -2.4259529677        2.2828048437
  C        11.5394629491       -2.5235169891        0.8746273727
  C        12.6303865494       -2.0205847942        0.2147472453
  H        12.8628097179       -2.2920243092       -0.8064911053
  H        10.7525580806       -3.0427283047        0.4061650161
  H        10.7016035000       -3.0776698466        2.7993359509
  H        12.4404316747       -1.8499768614        4.0982388974
  C        14.8785903530       -1.0844771550       -1.2148385714
  C        15.8205082453       -2.0851599084       -1.6984025700
  C        15.8282766545       -2.4893611518       -3.0386865753
  C        14.9122995882       -1.9499811706       -3.9720996495
  C        13.9752956986       -0.9824317037       -3.5051899440
  C        14.0094890833       -0.5419545003       -2.1710856991
  H        13.3756559566        0.3361665713       -1.8782970181
  H        13.2367632763       -0.5803464668       -4.1817765745
  H        14.8587328176       -2.2285619708       -5.0265805311
  H        16.6153387122       -3.1968963271       -3.3013114255
  H        16.5809774831       -2.4325791612       -1.0320422386
  C        12.2116971055        7.1761373713        2.3422147975
  C        11.2100130869        7.9730942291        3.0181157260
  C        10.1402767825        8.5498822061        2.2092183239
  C         8.9938978837        9.0694463922        2.8051559620
  C         8.0711627607        9.8413221953        2.1501758742
  C        11.2630695841        8.3995823582        4.4802568262
  C        12.0447849611        9.5159372646        4.8936632333
  C        11.9443662408        9.9647769722        6.1626470127
  C        11.2492592299        9.2572915163        7.1881274398
  C        10.4656839368        8.1573282209        6.7842340045
  C        10.4784318176        7.7438917975        5.4446274675
  H         8.9063769845        9.0355098750        3.9402570700
  H         7.2285964160       10.3447619175        2.6447704254
  H        12.7588667691       10.0149815625        4.1776030775
  H        12.4670373855       10.8452894400        6.4688898203
  H        11.2291945196        9.6539343377        8.2149802330
  H         9.8548865471        7.6624799447        7.5486523618
  H         9.9157528460        6.8530226383        5.0712634250
  C        12.2302126817        7.1182625529        0.8669922139
  C        13.1554788316        6.2402786348        0.2721147841
  C        14.3685763995        5.8238957218        0.9792101287
  C        14.2746414600        5.8130978212        2.4008633544
  C        13.1786270832        6.4420072184        3.0609106869
  C        10.2803082681        8.6088972953        0.7719928358
  C        11.3161488373        7.8899032169        0.1338364147
  C        11.4146136665        8.3653672626       -1.2817209593
  C        12.0860708429        9.5204713940       -1.6027679545
  C        11.9469146460       10.2161056732       -2.8482794595
  C        11.2194389187        9.6328720665       -3.8800945453
  C        10.5166065967        8.4789806121       -3.5683849134
  C        10.6821047541        7.8258329437       -2.3255323085
  H        10.1013451175        6.9433880519       -2.0697644670
  H         9.8381490168        8.0466913980       -4.2352652800
  H        11.3124939802       10.0528555637       -4.8940248809
  H        12.5250799888       11.1262541876       -2.9980703759
  H        12.5971160591       10.0001397593       -0.7478922937
  C         9.2953928958        9.3315941392        0.0893211712
  C         8.2209463556        9.9965532898        0.7264582880
  H         7.5564015321       10.5991247222        0.1267516986
  H         9.2727750595        9.5076941853       -1.0235544799
  C        13.0783465895        6.1552176262        4.5585348390
  C        12.3933279523        4.9445780122        4.8855112133
  C        12.3572044805        4.4919143471        6.2649182887
  C        13.0644653717        5.1039257212        7.2921850913
  C        13.6996186558        6.3208093990        6.8956771849
  C        13.7474999229        6.8426689288        5.5806550337
  H        14.2548232767        7.7979740655        5.4616662352
  H        14.3476351420        6.7874212178        7.7040094824
  H        13.0722575288        4.6988374685        8.2917747076
  H        11.8003815826        3.5442003598        6.4985545684
  H        11.9507901873        4.2909590508        4.1280088780
  C        15.3592126667        5.2047849667        3.0988037189
  C        16.4273912054        4.7154237305        2.4089965833
  C        16.5360188394        4.8242850170        0.9949371419
  C        15.4859440708        5.3008689397        0.3079307733
  H        15.4682528971        5.3390556874       -0.8128281940
  H        17.3162409832        4.2743331173        0.5295365752
  H        17.1222899503        4.0802270671        2.9110529106
  H        15.3492330512        5.1903532662        4.1913036167
  C        12.9170175409        5.8594145756       -1.1781469417
  C        12.1033790041        4.8093948578       -1.6762928970
  C        11.9546716464        4.6992214672       -3.0464493840
  C        12.7382699187        5.4221037675       -3.9880378771
  C        13.6927853293        6.3114581352       -3.4677675927
  C        13.7402061653        6.5527748351       -2.1102941568
  H        14.4278690928        7.2284659254       -1.7186441959
  H        14.4053008637        6.8952428021       -4.0789176294
  H        12.7812799550        5.1333377541       -5.0797245935
  H        11.3503600401        3.8046955303       -3.4252003733
  H        11.5743991163        4.1345800551       -0.9526946928
