140

  C        15.2690024346       -0.3937867943        2.4005598713
  C        16.1867709434        0.4916362346        3.1254409752
  C        17.1617023372        1.1154071380        2.3355787464
  C        18.2514372197        1.8690870253        2.8988539945
  C        19.2062050985        2.5414180734        2.0991655377
  C        15.9202373710        0.9789841926        4.5386249092
  C        15.1137152897        2.0628031749        4.8291167525
  C        15.1171091441        2.7131100674        6.0765537151
  C        15.7880142430        2.2008438142        7.2207598479
  C        16.5804752620        0.9950388917        6.9269572637
  C        16.6835865896        0.4492282323        5.6172603595
  H        18.2941062200        1.8940444613        3.9323132077
  H        20.0453793625        3.0617867296        2.5543755761
  H        14.5357643944        2.6814173200        4.0732754067
  H        14.5400421582        3.6408912183        6.2410584283
  H        15.7939096032        2.6131261898        8.2105111646
  H        17.0796672109        0.4011872178        7.7541673207
  H        17.2290592896       -0.4992415840        5.4541245018
  C        15.1517466475       -0.3951961892        0.9490629648
  C        14.1087207217       -1.0697112259        0.2528728164
  C        13.0256140366       -1.6020178193        1.0126774985
  C        13.1334429507       -1.7089884908        2.4327865716
  C        14.2635217121       -1.1724222173        3.0920527344
  C        17.1266061486        1.1091070642        0.8373630831
  C        16.0875140380        0.3723139536        0.2502121342
  C        15.9957147812        0.5909555687       -1.2170705226
  C        15.3947160558        1.7837446537       -1.6012313065
  C        15.3734320703        2.3054978684       -2.9268516227
  C        16.2420600019        1.7208494492       -3.9162515697
  C        16.8559084638        0.5084864481       -3.4770832516
  C        16.8137545646       -0.0238504541       -2.1723629301
  H        17.3289920748       -0.9391217906       -1.9706569460
  H        17.4446460145       -0.1074206185       -4.1211560491
  H        16.3448880963        2.0181070360       -4.9788519639
  H        14.9401375166        3.3199556616       -3.0151152209
  H        14.9205012526        2.2809443472       -0.7823132717
  C        18.1747179580        1.7454251416        0.0459411980
  C        19.1538760613        2.4937741584        0.6805663036
  H        19.9997255670        2.9117389745        0.1358704117
  H        18.0764229905        1.5996592559       -1.0022812328
  C        14.3982436899       -1.4082146476        4.5130995586
  C        15.2531531712       -2.4293180176        4.8941144610
  C        15.5443599517       -2.7325809999        6.2205564725
  C        14.8285361518       -2.0384418671        7.1882101633
  C        13.9171465257       -0.9794127254        6.8104640471
  C        13.6534660700       -0.7190228402        5.4728409355
  H        12.8868968502        0.0397614945        5.2998567462
  H        13.4132018142       -0.4639669285        7.5575166725
  H        15.0551932939       -2.1807392917        8.3050287858
  H        16.0628179207       -3.5819577917        6.4070790380
  H        15.7885315328       -2.9688383936        4.1659184545
  C        12.0449469764       -2.2956817077        3.1239471783
  C        10.9099021687       -2.7743794434        2.5050664223
  C        10.7693069025       -2.6286866421        1.0734182816
  C        11.8398758594       -2.0538084178        0.3578756395
  H        11.8058032743       -1.7302799291       -0.6998155556
  H         9.9055406753       -3.0798847079        0.5738088510
  H        10.0858898333       -3.1613013384        3.0483553993
  H        12.1156593242       -2.4123827006        4.2164567656
  C        14.0596213490       -1.3411468157       -1.2184883334
  C        14.7196340570       -2.5136653817       -1.6395725171
  C        14.5918863563       -3.0097022340       -2.9418190885
  C        13.9257981157       -2.2886443988       -3.9263979104
  C        13.2521625697       -1.1261389942       -3.4887187519
  C        13.3130503077       -0.6547156902       -2.1781510456
  H        12.6838503906        0.1789410559       -1.8986058599
  H        12.6169495845       -0.6160504676       -4.1499105202
  H        13.8255863020       -2.5250472405       -4.9580975076
  H        14.9586331227       -3.9705561888       -3.2552186990
  H        15.3972328707       -3.0127020850       -0.9562485113
  C        11.7221192037        7.1223937750        2.2589937300
  C        10.6437171644        7.7763328209        2.9786668173
  C         9.6233152677        8.3373124207        2.2229462696
  C         8.5201010249        8.9907903133        2.8074824998
  C         7.5615149918        9.6439362968        2.1118771868
  C        10.6493626373        8.0890514079        4.4293648355
  C        11.4438800041        9.1507461715        4.8587958163
  C        11.4434505427        9.6458133017        6.1825870124
  C        10.5162586668        9.0860301871        7.0930569179
  C         9.8019196189        7.9738379348        6.7107832964
  C         9.8115523885        7.4766247731        5.4003071322
  H         8.4156077027        8.9754139040        3.8916051570
  H         6.8348781530       10.3052663169        2.6550033915
  H        12.0284777160        9.6826679438        4.1089345520
  H        12.0684451125       10.4860309008        6.3927787470
  H        10.2502533409        9.5313611226        8.1033286963
  H         8.9707916182        7.6123094543        7.2292444617
  H         9.0473689591        6.7360994306        5.1340095830
  C        11.7977768281        7.1269637043        0.8088845521
  C        12.7650695711        6.4516040093        0.0661023288
  C        13.8973706914        5.9655949894        0.7161506875
  C        13.8920468815        5.9411141235        2.1819063326
  C        12.7895964061        6.3761796167        2.9205397261
  C         9.6757271467        8.3167097975        0.8067950270
  C        10.8204809806        7.8234797066        0.1202171194
  C        10.8648781308        8.1917761742       -1.3256334144
  C        11.3957497229        9.3933284076       -1.7868918484
  C        11.3318484295        9.7629377496       -3.1154661427
  C        10.5601377236        8.9852310366       -4.0060836676
  C         9.9600951452        7.8687790954       -3.5050412259
  C        10.0599854188        7.4523611756       -2.1705172478
  H         9.3061132622        6.7290822842       -1.8491351879
  H         9.3430979893        7.3085105513       -4.1515473305
  H        10.5908813399        9.2303918419       -5.0225486765
  H        11.7813457812       10.6637552796       -3.5202945253
  H        11.9880513361       10.0233952010       -1.0469140784
  C         8.6601653702        8.9829218084        0.0702002641
  C         7.6266277885        9.5970798272        0.6861928587
  H         6.8182576423        9.9844847095        0.0636799128
  H         8.7092486500        9.0366016603       -0.9690945516
  C        12.7774408051        6.0350757511        4.4016227865
  C        11.9263995755        4.9625495621        4.7756806574
  C        11.8190603222        4.5537807618        6.1059090940
  C        12.4589932864        5.2569265233        7.0871723764
  C        13.2013532873        6.4013958947        6.7819101087
  C        13.3514722183        6.8063837489        5.4406487870
  H        14.0809747099        7.5720141951        5.1538916816
  H        13.6954902842        7.0102913622        7.5651686472
  H        12.3182846786        4.9357310340        8.1679391185
  H        11.1971774664        3.7336531442        6.3885418894
  H        11.4442461847        4.4220696925        4.0008093391
  C        14.9867285656        5.3055258695        2.8190232553
  C        16.0661417962        4.7829605628        2.1880172571
  C        16.1347868599        4.8970993393        0.7232816472
  C        14.9986548085        5.2957453241        0.0187753508
  H        15.0331051084        5.2692072444       -1.0423659940
  H        16.8917515827        4.3369584350        0.1373094409
  H        16.8596654483        4.3133064262        2.8000962140
  H        14.9536444649        5.2755835078        3.8941504600
  C        12.6997431611        6.1341074428       -1.4102881897
  C        11.9807115447        5.0182488642       -1.7878001099
  C        11.8910394591        4.5779192112       -3.1090229802
  C        12.7815344177        5.1647702023       -4.0694155603
  C        13.4947065188        6.3233165404       -3.6669396400
  C        13.4760573958        6.7665381439       -2.3722144160
  H        14.0694307752        7.7448276536       -2.1539544833
  H        14.1226687195        6.8615305461       -4.3326523901
  H        12.9323607725        4.7591371769       -5.0625101665
  H        11.2349007289        3.7564148662       -3.3162757385
  H        11.4631855280        4.4643999675       -1.0254125761
