140

  C         3.5600128617       -0.0070456802       14.5797617654
  C         4.5903942288        0.6315305382       15.2815694139
  C         5.6654511693        1.2646539895       14.5825990220
  C         6.6708121740        2.0519065452       15.2390648135
  C         7.7298629478        2.6128486403       14.6462334691
  C         4.4710947183        0.8970796182       16.7251163283
  C         3.5035893628        1.8298226329       17.1007810092
  C         3.4400708741        2.3013718416       18.4192192829
  C         4.4089642721        2.0087184202       19.3486273853
  C         5.3816473036        1.0984483510       18.9585976309
  C         5.4150651452        0.4991756466       17.7487837890
  H         6.5553280928        2.2119363378       16.3450305832
  H         8.4653629847        3.2248646128       15.1760564497
  H         2.6667356883        2.0947320241       16.4343751584
  H         2.6580648133        3.0647455641       18.6378566638
  H         4.3133609229        2.3983494309       20.3463909371
  H         6.0239374900        0.7961754936       19.7708698495
  H         6.1977731481       -0.2703774118       17.4588708789
  C         3.4976820873        0.1116154310       13.1039139098
  C         2.4816346132       -0.6496789275       12.4025703588
  C         1.4164430745       -1.2206238861       13.0801881396
  C         1.4492942550       -1.2982737741       14.5182875036
  C         2.5568945201       -0.8171392667       15.2335836056
  C         5.7224858384        1.2473648228       13.1432064761
  C         4.5881752898        0.7953820302       12.4485430055
  C         4.4521177831        1.0446950170       11.0031043951
  C         3.8067081147        2.2392329145       10.5208651174
  C         3.8310982283        2.6652323987        9.2126174798
  C         4.5924029718        1.8800079434        8.2654823548
  C         5.3695627068        0.7554111905        8.7610917803
  C         5.3175251261        0.3744458710       10.1328075231
  H         5.8897595703       -0.4631641417       10.5056843202
  H         5.8313071159        0.0555925407        8.0631498759
  H         4.6491742843        2.1948060854        7.1915373879
  H         3.3107435177        3.5906009010        8.9783495622
  H         3.1173935622        2.7346352437       11.2545093318
  C         6.8511862905        1.8505166344       12.5237397617
  C         7.8085985979        2.5010697380       13.2301788336
  H         8.5123359862        3.1591545581       12.7292606993
  H         6.9654569390        1.8882228399       11.4178825720
  C         2.5964064098       -0.9965311222       16.7366050876
  C         3.5168893209       -1.9960957976       17.2654029593
  C         3.3798672848       -2.4350528467       18.5814345386
  C         2.3642376775       -1.9465523959       19.4360995756
  C         1.4367471856       -0.9821374428       18.9271607128
  C         1.5877650939       -0.5114643439       17.6093667346
  H         0.9951099626        0.3678193072       17.3080548890
  H         0.7276326112       -0.4546669304       19.5910410130
  H         2.2342002510       -2.3327661925       20.4572979558
  H         4.0315074601       -3.2384892220       18.9018023578
  H         4.2333075827       -2.3980428807       16.5497181870
  C         0.2545081571       -1.9159513040       15.1135935400
  C        -0.8393870415       -2.3752814711       14.4819761669
  C        -0.7532595048       -2.4250385930       13.0814790182
  C         0.3191804539       -1.9108403197       12.3905950610
  H         0.4190708540       -2.0777984364       11.3075659934
  H        -1.5592504023       -2.8171745279       12.5186613994
  H        -1.6684677739       -2.7916804741       15.0525612679
  H         0.2534656544       -2.0057081545       16.1465290931
  C         2.6428537278       -0.8965540621       10.9080879987
  C         3.3984564569       -1.9950823944       10.4620120414
  C         3.1626624955       -2.5069608499        9.1980256968
  C         2.2232479745       -1.8919291913        8.3241943000
  C         1.5257047208       -0.7440904512        8.7241791845
  C         1.7868850941       -0.2217074930        9.9676278000
  H         1.3773955148        0.7606657596       10.1095383419
  H         0.8890630765       -0.2640162349        8.0292264804
  H         2.0822682311       -2.2628931481        7.3536595324
  H         3.6961502655       -3.4129770679        8.7901420012
  H         4.1035248819       -2.5412377548       11.0807430518
  C        -0.0547761202        7.3211029242       14.4303761529
  C        -1.0154652638        8.0162123586       15.1474957951
  C        -2.0427541028        8.6768001729       14.3706000608
  C        -3.1198676064        9.3219555077       15.0787518080
  C        -4.0261300596       10.1871824152       14.4206367466
  C        -1.0429573931        8.3751692661       16.5579464998
  C        -0.2771689559        9.4227939484       17.0667782671
  C        -0.4400165189        9.8542801535       18.4025915696
  C        -1.2199091410        9.1532814118       19.2893256956
  C        -1.9882255132        8.0356934064       18.8061157598
  C        -1.8711809410        7.6826126402       17.4664989126
  H        -3.1792220823        9.2509015261       16.1741903539
  H        -4.7649250473       10.6989423969       15.0241717255
  H         0.2657472151       10.0339032022       16.3998625787
  H         0.0976792501       10.7327355093       18.7218208953
  H        -1.2913225745        9.4920690155       20.3245075745
  H        -2.6607614327        7.4670262056       19.4683775348
  H        -2.4568409884        6.8585494489       17.0805737332
  C        -0.0239624012        7.2881669042       12.8774663663
  C         1.0543364567        6.5557818259       12.1626772086
  C         2.1183141225        5.9724542552       12.9642100662
  C         2.0982398754        6.0698349747       14.4733048672
  C         0.9907237040        6.6898844331       15.1171028912
  C        -2.0442165929        8.7363713312       12.9372654979
  C        -0.9887358582        8.0703598072       12.2197837138
  C        -0.9820459084        8.3574033332       10.7183565153
  C        -0.0108013660        9.2864311270       10.2802496539
  C        -0.0511471243        9.8747805100        8.9760304692
  C        -0.9715305656        9.4012104728        8.0243798135
  C        -1.8594616819        8.4023927492        8.4075637084
  C        -1.9430743105        7.9801367097        9.7641206144
  H        -2.6882837625        7.1736248802        9.9424400400
  H        -2.4914791015        8.0089176367        7.6660575223
  H        -1.0146672732        9.7334647730        6.9909749106
  H         0.8152914622       10.4572482453        8.6833147645
  H         0.8165603808        9.6133121595       10.9623007527
  C        -3.0752491570        9.4851858051       12.2977955310
  C        -4.0082840758       10.1921925788       13.0001318649
  H        -4.7264464239       10.7792625864       12.4047702428
  H        -2.9809779385        9.6655413788       11.2189995872
  C         0.9197904089        6.3675236489       16.6238362508
  C         0.0277628942        5.3294801419       16.9655900703
  C         0.1174125145        4.7702453275       18.2361151940
  C         1.0685053180        5.2473206890       19.1355693691
  C         1.9216405062        6.3257483493       18.8399960501
  C         1.8474709575        6.9034550282       17.5771818773
  H         2.4866475988        7.7226882704       17.1973464086
  H         2.5552575170        6.7510490235       19.6225671129
  H         1.1387214408        4.8254965154       20.1585001724
  H        -0.5375960032        3.9319943582       18.5663007075
  H        -0.6068829540        4.8960290490       16.2235493955
  C         3.1260968781        5.4211354319       15.1807792542
  C         4.1508903079        4.7535433384       14.5028972328
  C         4.1227734007        4.6479189767       13.1383835035
  C         3.1967662126        5.2494955439       12.3261213163
  H         3.2769848271        5.1588388042       11.2413816527
  H         4.8218836014        3.9995904402       12.5854281288
  H         4.8585474867        4.1423668092       15.0300143240
  H         3.1768464897        5.3448279906       16.2410233026
  C         0.9444574039        6.2706857418       10.6580152119
  C        -0.1057024978        5.4706690305       10.1902765799
  C        -0.1531448715        4.9395747810        8.8810442367
  C         0.8431700980        5.2204115728        7.9567742344
  C         1.8973010166        6.0834086749        8.4210276288
  C         1.9603603505        6.5831806705        9.7318737468
  H         2.8162662037        7.1856560400       10.0172355316
  H         2.7059891801        6.2720500097        7.7208637438
  H         0.8014986756        4.9026504738        6.8980985774
  H        -1.0151597935        4.3179261931        8.7247209121
  H        -0.8732367267        5.0801098936       10.8404626248
