140

  C         2.6603778677        0.5032902962       14.5182944037
  C         3.8207830246        1.0552948768       15.2058189120
  C         4.8947164371        1.4514361727       14.3916161211
  C         6.1444081105        1.7865374800       15.0991718248
  C         7.1144718347        2.4455264442       14.4230429424
  C         3.6296055817        1.5081864631       16.6327355981
  C         2.7925539441        2.5860651307       16.8439823216
  C         2.6258468261        3.1570739256       18.1259287987
  C         3.2579430021        2.5071833323       19.2312839766
  C         4.1914132487        1.4959696871       19.0525896005
  C         4.3843278359        0.9815146046       17.7415946794
  H         6.3312820503        1.5396192253       16.0911140574
  H         8.0400727574        2.8121982268       14.8541993528
  H         2.2416990750        3.0323282037       16.0275131274
  H         1.9251291442        3.9747660631       18.3019094834
  H         3.1142190291        2.9119214295       20.2549483266
  H         4.6096272446        1.1222497752       20.0087700974
  H         5.0387445915        0.1132540906       17.4494173094
  C         2.5229661494        0.5987097929       13.0639899786
  C         1.4841565706       -0.0785092850       12.3613342197
  C         0.3874955278       -0.5733259296       12.9739979625
  C         0.4537979209       -0.6559073574       14.4029122970
  C         1.5087823230       -0.0752204718       15.1368213872
  C         4.8473958035        1.6168125999       12.9600625230
  C         3.6277336978        1.2484778625       12.3269474210
  C         3.4010503812        1.7255860544       10.9316364043
  C         2.4302652263        2.7190694206       10.6415994068
  C         2.3224697502        3.2850485376        9.3582059883
  C         3.1634447582        2.7940132683        8.3262158982
  C         4.0543389583        1.7239318007        8.5464846511
  C         4.1644669737        1.2186912169        9.8159602953
  H         4.8454820393        0.3979832920        9.9779797877
  H         4.7162724125        1.3571404153        7.8189284333
  H         3.0811829549        3.3573982685        7.4211542689
  H         1.6927588809        4.1785069395        9.2331684699
  H         1.7250507866        3.0959908529       11.3620063252
  C         6.0170066830        2.1312664653       12.2870384497
  C         7.0040049091        2.6604862894       13.0257513654
  H         7.8018485982        3.1741009664       12.4174826192
  H         5.9540380807        2.1375583677       11.1790290306
  C         1.5630387206       -0.5186349748       16.5661555659
  C         2.5018950695       -1.5931623812       16.7789583064
  C         2.5519923690       -2.1755813237       18.0547479671
  C         1.5370806211       -1.8566413253       19.0594089410
  C         0.7708465083       -0.6965057082       18.8239052720
  C         0.7413614173       -0.0761079390       17.5603669563
  H         0.0915486378        0.8096899374       17.4375073382
  H         0.1726178698       -0.2694259564       19.6194112760
  H         1.5637597281       -2.4340484848       19.9566638420
  H         3.2620023819       -2.9624065001       18.2720463824
  H         3.2371935044       -1.7873580250       16.0090802701
  C        -0.6006471058       -1.3521417874       15.0009346975
  C        -1.6409038642       -1.8871406326       14.3177329319
  C        -1.6972245305       -1.8281633082       12.8857011256
  C        -0.6791694625       -1.2422222452       12.1958865369
  H        -0.6175105071       -1.2588179958       11.0945153211
  H        -2.5216812189       -2.3739470938       12.4038270523
  H        -2.4800644168       -2.3402822966       14.9283448118
  H        -0.6780728500       -1.2799597756       16.0783950789
  C         1.6990627764       -0.5573936075       10.8856952235
  C         2.4120219285       -1.7710555426       10.7490181045
  C         2.5576516652       -2.4918079626        9.5693801283
  C         2.0766760780       -1.9276192316        8.3676376707
  C         1.2068985644       -0.8090043771        8.4985324345
  C         1.0035576777       -0.1598545423        9.7184564804
  H         0.3557797547        0.6870177846        9.6732552825
  H         0.7430282945       -0.4513594851        7.5878496156
  H         2.3940850029       -2.2809538805        7.3339245941
  H         3.2724769551       -3.3501684690        9.5432362975
  H         2.8478188790       -2.0763414815       11.7138695292
  C        -0.8700783738        7.5233337357       14.6907497580
  C        -1.9031310383        8.2686769111       15.3285612477
  C        -2.9783131438        8.8124104067       14.5661894429
  C        -4.1285964228        9.4004259762       15.2438001684
  C        -5.1954287178        9.9942076645       14.6296179265
  C        -1.9564753852        8.5747248515       16.7856188118
  C        -1.2071204357        9.7051619896       17.2027567063
  C        -1.3138210098       10.1997550852       18.5212772883
  C        -2.1881121774        9.5103321470       19.3768341671
  C        -2.7607883621        8.2894977825       19.0050454045
  C        -2.7116752320        7.8604321145       17.7239704146
  H        -4.1286836472        9.3597439878       16.3361965749
  H        -5.9667599853       10.5569482736       15.2142396538
  H        -0.6686938128       10.2674661667       16.4114320769
  H        -0.7738244276       11.1085099369       18.7491800524
  H        -2.2754039943        9.8134115816       20.4136635304
  H        -3.4195917946        7.7813545346       19.6880560659
  H        -3.2888853913        6.9496467774       17.4637827184
  C        -0.8917592400        7.5295277196       13.2197286766
  C         0.0734556492        6.8132294631       12.4597954266
  C         1.2092362679        6.3142673363       13.1204488356
  C         1.3044390925        6.3575430706       14.5954038154
  C         0.1918414093        6.8689526541       15.3470021162
  C        -2.9452159886        8.9034486514       13.0856195062
  C        -1.8328839807        8.3582566778       12.4539011836
  C        -1.7248391979        8.8307288977       11.0533011032
  C        -0.6788416496        9.6490328309       10.5488006256
  C        -0.7576627240       10.1249255365        9.2149170674
  C        -1.8360755390        9.7448109485        8.3231807941
  C        -2.8584492692        8.8917002027        8.8273273971
  C        -2.7710392553        8.4934863036       10.1952248184
  H        -3.5288788545        7.7998527315       10.4955090797
  H        -3.7199588466        8.5821316482        8.2289161791
  H        -1.8933401152       10.0861327251        7.2685959284
  H        -0.0469616258       10.9177862629        8.9289887107
  H         0.1749270667        9.8563334319       11.1130419273
  C        -4.0171439968        9.6714696551       12.5178783061
  C        -5.1021919941       10.1469702873       13.2068246129
  H        -5.9304243210       10.6664776776       12.7266468425
  H        -3.9106763718        9.9223306278       11.4408838912
  C         0.2570357256        6.5239569015       16.8302779068
  C        -0.5360619928        5.4865137850       17.3362561591
  C        -0.4821192631        5.0665090971       18.7090201121
  C         0.4866216456        5.5912575735       19.5468393768
  C         1.3020362039        6.6545907928       19.0773226775
  C         1.1736738959        7.1924179145       17.7665659112
  H         1.7253743107        8.1089781228       17.4970039593
  H         2.0569305503        7.0340029204       19.7529949571
  H         0.7151536952        5.3084271361       20.5711889281
  H        -1.1115114841        4.1863803379       18.9635278398
  H        -1.1226981513        4.9709285834       16.6194164378
  C         2.4622010749        5.8629150730       15.2328220699
  C         3.4835408706        5.2400941285       14.4891597692
  C         3.3651500754        5.1227787013       13.0926047599
  C         2.2554654122        5.6842910626       12.4323443787
  H         2.1989143018        5.6006249637       11.3845192557
  H         4.1652411195        4.7073628901       12.4990553078
  H         4.4120026524        4.8724584231       14.9164869178
  H         2.6304224728        6.0036721692       16.2838845858
  C        -0.0426814291        6.4942638490       10.9554048333
  C        -0.8867569558        5.4530539131       10.6085085818
  C        -0.9711091858        4.9996079778        9.2737197237
  C        -0.1467200304        5.5513295107        8.2890274903
  C         0.5888909185        6.7024137066        8.6546006423
  C         0.6614752659        7.1425181695        9.9545698832
  H         1.4728858872        7.8117863481       10.3637662406
  H         1.1664183022        7.1460392538        7.9025289134
  H        -0.1273118353        5.1392683720        7.2768665897
  H        -1.5315971260        4.0826322546        9.1128865652
  H        -1.4511382637        4.9433576348       11.3608364768
