140

  C        14.6313011104       -0.0891288168        0.5408581966
  C        15.6498000083        0.4526747100        1.3546729008
  C        16.8019225915        1.0117039819        0.7439429851
  C        17.8547865447        1.7705621036        1.4524884148
  C        18.7939720042        2.5063976332        0.8386799592
  C        15.5213690434        0.6993983055        2.8420210709
  C        14.8385203712        1.9070741467        3.2392068821
  C        14.7877883867        2.2646475563        4.5775661529
  C        15.3966244449        1.5312756141        5.5949750274
  C        16.1745531574        0.3981673750        5.2191102232
  C        16.2745046368       -0.0011933257        3.9042876579
  H        17.7967258662        1.7774621017        2.5391495367
  H        19.6244378725        3.0108202619        1.4056052123
  H        14.3146330958        2.5263155651        2.4724291337
  H        14.2281824812        3.2039278989        4.8314791711
  H        15.4258779177        1.9798019593        6.5806236100
  H        16.6607496659       -0.0921849977        6.0361376566
  H        16.8919009112       -0.8802601443        3.4930113293
  C        14.7241285395       -0.1004616808       -0.9396971548
  C        13.7212964673       -0.6232411933       -1.7021571065
  C        12.5206750282       -1.1212726243       -1.1182505114
  C        12.4149603168       -1.1375620369        0.2855998029
  C        13.4892764844       -0.7540783172        1.1419954507
  C        16.8791451099        1.0493025966       -0.6743205938
  C        15.8437352124        0.6019136181       -1.5263223931
  C        16.0048196439        0.7839562807       -3.0042359303
  C        15.3477688931        1.8167463068       -3.6271609819
  C        15.4644987566        2.0545538399       -4.9765566088
  C        16.4266937690        1.3502475788       -5.6887807470
  C        17.1045064757        0.2937962600       -5.0737370753
  C        17.0885602039        0.0985444814       -3.6814197693
  H        17.7178123663       -0.6362179612       -3.1754263448
  H        17.8458983232       -0.2042056265       -5.6816808234
  H        16.4748859499        1.4501814745       -6.8091505127
  H        14.8352270051        2.8202203388       -5.4379459259
  H        14.5868328142        2.3046214703       -3.0318698121
  C        17.9648547936        1.7514826235       -1.2673012435
  C        18.8791892528        2.4340622851       -0.5971007597
  H        19.6961689449        3.0119145340       -1.0373652035
  H        18.0951166964        1.6740961987       -2.3713369403
  C        13.5147127265       -1.2993524260        2.5893579830
  C        14.5534783630       -2.2878080304        2.8536537308
  C        14.6092013641       -2.8197669063        4.0910118017
  C        13.7860497834       -2.4697312943        5.1237481756
  C        12.8656909520       -1.3703084646        4.8875401469
  C        12.7727733058       -0.8189841042        3.6476369447
  H        12.0998605644       -0.0470202536        3.4317472920
  H        12.2525819600       -1.0125530819        5.7188140241
  H        13.9418821783       -3.0586479736        6.0360308908
  H        15.3635374878       -3.5668922628        4.2450629523
  H        15.1457730096       -2.5919830355        2.0253525981
  C        11.3086700603       -1.8956037199        0.8391030170
  C        10.4363066399       -2.6528235488        0.0824985895
  C        10.5509596871       -2.5641843324       -1.3268769408
  C        11.5040714446       -1.7775114434       -1.8770868842
  H        11.5996024456       -1.7331151654       -2.9492443409
  H         9.8580687535       -3.0313224786       -2.0281421048
  H         9.8120224962       -3.4203263434        0.5898957724
  H        11.2651108202       -1.9874410120        1.9080014082
  C        13.9082562022       -0.9036347074       -3.1725235741
  C        14.8409043142       -1.8673564918       -3.5893156193
  C        14.7486919667       -2.3870143883       -4.9114995335
  C        13.8762693902       -1.8250654749       -5.8441717706
  C        13.0369632612       -0.8032491163       -5.3964356226
  C        13.0271794230       -0.3438273315       -4.0940615037
  H        12.3888735155        0.5087271669       -3.7934854924
  H        12.3288014751       -0.4483357779       -6.1078268093
  H        13.7638626304       -2.2065993173       -6.8419907673
  H        15.4592037629       -3.1483099188       -5.2385230012
  H        15.4550351889       -2.3454326973       -2.8386110111
  C        11.0515530517        6.8776436358        0.4710383601
  C        10.0364700543        7.5468967575        1.0567835118
  C         9.0108818214        8.1025740214        0.3205250463
  C         7.9922305765        8.8958710539        1.0111768908
  C         7.0455469076        9.5194438575        0.3048826677
  C        10.0408678358        7.8233360230        2.4827022765
  C        10.7288003913        9.0622310807        2.8283965589
  C        10.8737094167        9.5098841989        4.1430937856
  C        10.1339770961        8.8943151043        5.1626101997
  C         9.5171873726        7.6425325089        4.8999916394
  C         9.4299074584        7.1790258659        3.5639556337
  H         7.9796789261        8.8601710721        2.0600828243
  H         6.2439719146       10.1320117326        0.7930017961
  H        11.3040956805        9.5944327849        2.0306471923
  H        11.4683936833       10.4513745826        4.3472045205
  H        10.1184597486        9.2502133437        6.1495678543
  H         8.9717106924        7.0525370761        5.7471054703
  H         8.8482903245        6.3287969242        3.2622880051
  C        11.2523781429        6.9535775618       -0.9659435585
  C        12.2700304773        6.1146029236       -1.6005103038
  C        13.3454472211        5.5826982936       -0.8440549620
  C        13.2417227485        5.7410219641        0.5737116155
  C        12.1452892242        6.3114264516        1.2192722230
  C         9.1266887822        8.2531613631       -1.0924638697
  C        10.3382837276        7.7249709318       -1.7326669740
  C        10.4587293286        8.1047594441       -3.1800060495
  C        11.3428909837        9.0778803813       -3.8120884159
  C        11.2221549315        9.6044340570       -5.1163133055
  C        10.1613513458        9.1128197960       -5.9120206759
  C         9.4679850487        7.9671826134       -5.4416455307
  C         9.5610364442        7.5523339137       -4.1275557103
  H         8.8715620931        6.7598394403       -3.8362434083
  H         8.6660607129        7.4782497645       -6.0098131531
  H        10.0096149269        9.3108020785       -6.9341894926
  H        11.8721682559       10.3262645844       -5.5747228913
  H        12.1159691971        9.4766586220       -3.1430851444
  C         8.2222721017        9.0750111221       -1.8085163791
  C         7.1399261734        9.6786220148       -1.0657149035
  H         6.3902853908       10.2705495354       -1.5794750735
  H         8.1869891564        9.0277359063       -2.8875628336
  C        12.0668683518        5.9628105363        2.6428864163
  C        11.5057258985        4.6714720624        2.9355885220
  C        11.4021587900        4.2051679801        4.2278206165
  C        11.9602913705        4.9043890278        5.3070890048
  C        12.5674413564        6.1062070592        5.0421607413
  C        12.6810102447        6.6756947096        3.7303873536
  H        13.0427621760        7.6871473016        3.6363485005
  H        12.8856678203        6.7392957738        5.8419656021
  H        11.9005037233        4.5742715081        6.3758210491
  H        10.8457668873        3.2620365535        4.2809406047
  H        11.1013776533        4.1321770650        2.0627661536
  C        14.2963296675        5.3050747546        1.3543519126
  C        15.4182933412        4.6283722555        0.8323910055
  C        15.5097078412        4.3074636114       -0.5592518565
  C        14.4784615213        4.8311286554       -1.3325198087
  H        14.5801563485        4.6438606064       -2.4451183150
  H        16.2872232918        3.8179167196       -1.0821129736
  H        16.3811597073        4.5255608213        1.4649915411
  H        14.4732357846        5.4333924637        2.4383800492
  C        12.1395613631        5.7300377788       -3.0134760121
  C        11.0897252235        4.8600039601       -3.4230978963
  C        11.0202255260        4.3237552124       -4.7181252356
  C        11.9308066100        4.7355022795       -5.6749384358
  C        12.9939014121        5.5413089524       -5.2610991685
  C        13.1317954663        6.0677965117       -3.9610527648
  H        14.0189314639        6.6856615376       -3.6334942442
  H        13.6089723231        6.0223501946       -5.9940846931
  H        11.8418574299        4.4603534900       -6.7152876693
  H        10.2952195177        3.5059307604       -4.9490291827
  H        10.2945845326        4.5094583930       -2.7774824220
