140

  C         3.8812272862        0.1989686183       14.6016416579
  C         4.9194323243        0.9198807461       15.3234227196
  C         5.9840989313        1.4107140984       14.5508800387
  C         7.0251323616        2.1992862370       15.2099883036
  C         8.1540597735        2.7006151789       14.5837782746
  C         4.8191171812        1.2050087281       16.7561743013
  C         4.1798706430        2.3253676827       17.2087155294
  C         4.2469633042        2.7305073156       18.5416723713
  C         4.9153570951        1.9945837996       19.5074144072
  C         5.6267955800        0.8356144253       19.0704454381
  C         5.5515016954        0.4756173085       17.7174519926
  H         6.9723077479        2.2861191465       16.2766067618
  H         8.9810703570        3.1838778710       15.0756034656
  H         3.6360786003        2.9143724154       16.4917156161
  H         3.7349920087        3.6056615031       18.9044665891
  H         4.8103301606        2.2004155727       20.5875364315
  H         6.3491146609        0.3223352483       19.7057929625
  H         6.2810468640       -0.2610880793       17.4230739615
  C         3.8941022659        0.1685301309       13.0891792924
  C         2.8479576409       -0.5710165354       12.4166214116
  C         1.8194799671       -1.2048639016       13.1652391961
  C         1.7953855933       -1.1497796251       14.6460678606
  C         2.8049365901       -0.4546216141       15.3662787022
  C         6.0216844346        1.4261550853       13.1412148367
  C         4.9614096003        0.8662531905       12.3908448452
  C         4.7690443281        1.2293953926       10.9567814434
  C         3.8478630662        2.2332567910       10.8027204038
  C         3.7246925170        2.8768146657        9.5349532724
  C         4.5584755987        2.5072030007        8.5133354731
  C         5.4806808855        1.5097879976        8.6920928158
  C         5.6219101085        0.8402825444        9.8753377146
  H         6.4318068658        0.2015400392       10.0525927147
  H         6.2034447399        1.3184179513        7.8820277329
  H         4.4222535593        3.0632836387        7.6108846063
  H         3.0551121373        3.7265306210        9.3797817253
  H         3.1522206484        2.5692126751       11.5789656976
  C         7.0620864804        2.1125569463       12.5073373612
  C         8.0759150893        2.6923879472       13.1632190902
  H         8.8242584902        3.2362851202       12.5223033645
  H         7.1214737882        2.1528094530       11.4298518499
  C         2.8115705489       -0.6750665884       16.8516578483
  C         3.3908895047       -1.8954287531       17.2893031701
  C         3.1115736203       -2.3344666181       18.5635619977
  C         2.4540159651       -1.4593436426       19.4708307898
  C         1.9514389736       -0.2462895574       19.0291926365
  C         2.0996251295        0.1864295517       17.6976283086
  H         1.7004162526        1.1249970611       17.3222329118
  H         1.3467746394        0.3590388905       19.7493846668
  H         2.2471198032       -1.8556300285       20.4155875857
  H         3.3900502055       -3.3424847995       18.9807153094
  H         4.0468573714       -2.4367976737       16.5335294413
  C         0.7388449159       -1.8017171988       15.3756166331
  C        -0.3193556058       -2.4692878705       14.7171451972
  C        -0.2466317809       -2.5694462980       13.3049599797
  C         0.7626397337       -1.9713819046       12.5339855623
  H         0.6133952661       -2.0325935194       11.4702762011
  H        -1.0166031578       -3.1626990603       12.7861917436
  H        -1.2520270519       -2.8635872646       15.1706469660
  H         0.6970354579       -1.5649925766       16.4816480967
  C         2.9961575613       -1.0243486800       10.9726350121
  C         3.6261363983       -2.2382000006       10.6988128049
  C         3.6001796497       -2.7920162089        9.4404316589
  C         2.9124295268       -2.1339972210        8.3887658185
  C         2.2567641146       -0.9390479723        8.6502195936
  C         2.2282878894       -0.3836582670        9.9372765360
  H         1.7441127759        0.5297903762       10.0395669842
  H         1.7623715893       -0.4301584926        7.8192004636
  H         3.1778073589       -2.3380618119        7.3563390155
  H         4.1777379223       -3.6825712504        9.2467424296
  H         4.0472787255       -2.8042269746       11.5612939398
  C        -0.1314158995        7.4439884188       14.7561384916
  C        -1.1371278619        8.2086388617       15.4208166731
  C        -2.2858792051        8.6617338902       14.7380997444
  C        -3.3573266204        9.3923522953       15.4170585843
  C        -4.4098241807        9.9741263324       14.7258691806
  C        -0.9689839187        8.7033206306       16.7957941211
  C        -0.0661246553        9.7329314164       17.0842771889
  C         0.0918647671       10.2793094508       18.3826203326
  C        -0.6572509905        9.7992643268       19.4752223524
  C        -1.5307804248        8.7073760466       19.2448433736
  C        -1.7357366343        8.2104176367       17.9160463593
  H        -3.4084464986        9.4189781681       16.5142192643
  H        -5.2200962104       10.4647005083       15.2725111142
  H         0.5348277778       10.1291997604       16.3023143327
  H         0.8209063043       11.0815338036       18.5056534074
  H        -0.4538293225       10.2861160260       20.4312562227
  H        -2.1670448128        8.3349765265       20.0276861892
  H        -2.4637753426        7.4443893312       17.7326237957
  C        -0.1306137312        7.3808511259       13.3216720362
  C         0.9184876686        6.6766484595       12.6011844682
  C         1.9990943092        6.1387777104       13.3258724660
  C         1.9690097743        6.1448147120       14.7939788492
  C         0.8722615188        6.7148399395       15.4807234242
  C        -2.2991671736        8.6107625037       13.3016157374
  C        -1.2387516505        7.9763010559       12.5409087511
  C        -1.0334455273        8.4072442427       11.0900647470
  C        -0.0763269514        9.3897813918       10.7367003268
  C         0.0981398994        9.8407973697        9.4561924887
  C        -0.8931832703        9.5247021188        8.5127173197
  C        -1.8947073869        8.5259493992        8.8455478881
  C        -1.8928765833        7.8954954435       10.0863497439
  H        -2.5085347859        7.0239776149       10.2927359478
  H        -2.6623194793        8.1951375836        8.0849583630
  H        -0.9555310748       10.0159924187        7.5140791935
  H         0.9626602857       10.4356422537        9.1617445728
  H         0.5530204195        9.6462626044       11.5754941998
  C        -3.3470249243        9.3309556596       12.6629203943
  C        -4.4261868079        9.9285646390       13.2993061765
  H        -5.1588161955       10.4721724548       12.7062231168
  H        -3.3450982403        9.4601573457       11.5922268533
  C         0.9324724103        6.3109737206       16.9892440650
  C         0.3729790907        5.0839126744       17.4433597861
  C         0.5144937057        4.7151985599       18.8117412358
  C         1.2168163072        5.4512038599       19.7693642715
  C         1.7688067436        6.6407335513       19.2755636116
  C         1.6840195620        7.0587048042       17.9369467837
  H         2.1544821299        8.0172419436       17.7730178614
  H         2.4153788520        7.2218622649       19.9157468923
  H         1.3044563214        5.0751582703       20.8030536383
  H         0.0877123087        3.7913371507       19.1529407225
  H        -0.0631435802        4.3961341768       16.7086847641
  C         3.0442091329        5.4861555669       15.4887183303
  C         4.0481665422        4.7716056550       14.8795054754
  C         4.1058546854        4.8736862823       13.4643551878
  C         3.1585293907        5.6334555432       12.7030895891
  H         3.1941905998        5.4679963179       11.6534177701
  H         5.0078101654        4.4498255212       12.9848316792
  H         4.8455298006        4.2943344396       15.4158136418
  H         3.0068412919        5.4730915435       16.5827920666
  C         0.7202276085        6.3921456177       11.1930467529
  C        -0.1613599898        5.4022418746       10.8270239385
  C        -0.2123573777        4.9895820142        9.4119946276
  C         0.6199105139        5.5064112859        8.5221567712
  C         1.5998337358        6.5046337058        8.9242278915
  C         1.6099827633        6.9804532289       10.2159962764
  H         2.3311641803        7.6630626695       10.5996825895
  H         2.2672872411        6.8692753236        8.1277515688
  H         0.5224229556        5.2307834239        7.4545436994
  H        -0.9490682949        4.2598005649        9.1057503841
  H        -0.8305146262        4.8930882612       11.4906616804
