140

  C         3.1381174281        0.5512567171       14.6146372410
  C         4.1234107991        1.2362661020       15.3454861001
  C         5.1944577594        1.7621655782       14.6824199652
  C         6.2323989798        2.4883537510       15.4072110431
  C         7.2412491134        3.0401020793       14.7367438872
  C         3.9372186652        1.4832726054       16.8209483792
  C         3.0326760262        2.4302115813       17.2593160934
  C         2.9628788543        2.8293684315       18.6289819816
  C         3.8370578888        2.1853708706       19.5808712715
  C         4.7996504879        1.2402463840       19.1112461776
  C         4.7339290324        0.8607510210       17.7597498266
  H         6.1080916915        2.7274080984       16.4298823820
  H         7.8931280776        3.6252199066       15.3089795371
  H         2.5183411241        2.9558078943       16.4104531490
  H         2.1461528649        3.4327634644       18.9147689425
  H         3.8867761948        2.5337008936       20.5925085305
  H         5.4408077477        0.8072696264       19.8718383282
  H         5.3267398790        0.1117751307       17.2619672071
  C         3.1449788725        0.4947168596       13.0925181783
  C         2.0863807161       -0.2553688876       12.4842292521
  C         1.1030335196       -0.8157059918       13.2291086456
  C         1.0882465734       -0.8782761050       14.6564199825
  C         2.1307365020       -0.2312932346       15.3170331637
  C         5.3718872679        1.6137458279       13.2394888221
  C         4.2824265226        1.0645366500       12.5099468483
  C         4.2290011455        1.2874746959       11.0906169281
  C         3.6558910655        2.4522281360       10.5956202156
  C         3.6004819226        2.7141519583        9.2317740405
  C         4.3176060055        1.8878452235        8.3888416384
  C         4.9596598144        0.6987597583        8.8429946064
  C         4.9438826133        0.3878302962       10.2052400801
  H         5.5274830051       -0.3740610438       10.6560339396
  H         5.5942630039        0.2291511300        8.1091524772
  H         4.2614086884        2.0442074597        7.3222122880
  H         3.0194131580        3.5861963459        8.9218790809
  H         3.2131266905        3.1643652369       11.2890165969
  C         6.5970171856        1.9802591708       12.6399141500
  C         7.5522941163        2.6302834505       13.4239776555
  H         8.6275208129        2.6728924296       13.1630425548
  H         6.9452067394        1.6545308274       11.6920479287
  C         2.1658695444       -0.6027515162       16.7469136742
  C         2.8946186899       -1.7183373166       17.0953262286
  C         2.6924339760       -2.3730545770       18.3517891342
  C         1.8070328002       -1.7284100434       19.2196804506
  C         1.1386313333       -0.5117892767       18.9296204958
  C         1.3334372153        0.0428186885       17.6583007725
  H         0.6852731653        0.8845931231       17.2930639379
  H         0.5041615757       -0.0831046582       19.6773961770
  H         1.5031343682       -2.1730642352       20.1245260833
  H         3.1676059404       -3.2675332454       18.6123561002
  H         3.5250914955       -2.2552797627       16.3843909643
  C         0.0379154530       -1.6202781280       15.3045441564
  C        -0.9069981438       -2.3609116006       14.5819338328
  C        -0.9156578269       -2.4256653984       13.1913524904
  C         0.0290611993       -1.5917508441       12.5599778475
  H         0.0586809486       -1.5066107738       11.4837787749
  H        -1.6872543441       -2.9238851631       12.6182108459
  H        -1.7555758440       -2.8302183009       15.0881374515
  H         0.1116533811       -1.8634478596       16.3345103960
  C         2.1616504586       -0.5930299090       11.0613255339
  C         2.9665560843       -1.7282058289       10.7761832565
  C         3.0548780807       -2.1413890425        9.4751785521
  C         2.3352459483       -1.5682683352        8.4446688101
  C         1.4007868235       -0.5734443458        8.7932779635
  C         1.4274501990       -0.0090752998       10.0485185786
  H         0.7098660585        0.8174428370       10.3472343118
  H         0.8155331051       -0.1964857370        7.9033096812
  H         2.3637529663       -1.9953500813        7.4522504416
  H         3.7593294642       -2.9730597963        9.2955115778
  H         3.3501921055       -2.3191925636       11.5666752058
  C        -0.7373794544        7.5024162621       14.7174728159
  C        -1.7822340552        8.2657522293       15.3120744930
  C        -2.8289236630        8.8103232395       14.5385138547
  C        -4.0253537476        9.4220412864       15.0787838834
  C        -5.0736339656        9.7662642766       14.3368670435
  C        -1.7383328313        8.6525407669       16.7798958759
  C        -0.7809771713        9.5414855207       17.3101868909
  C        -0.7916744958        9.8893788104       18.6936266854
  C        -1.7399930539        9.3395672066       19.5266388153
  C        -2.6056156869        8.3382976444       19.0495608437
  C        -2.6867820890        8.0954958939       17.6495930666
  H        -3.9965050387        9.7789384819       16.0880464271
  H        -5.9877566821       10.1412766281       14.8262337350
  H        -0.0118098341        9.7890488436       16.5873475090
  H         0.0144768699       10.4510160859       19.1579046581
  H        -1.7033153273        9.5363913997       20.5972898375
  H        -3.2572210088        7.8340373804       19.7803594423
  H        -3.4225499664        7.4378324586       17.1420143721
  C        -0.6936782632        7.4006006487       13.2273968972
  C         0.4271812519        6.6908050533       12.6285470736
  C         1.5836844292        6.3230398764       13.4033666021
  C         1.4645951286        6.4160608789       14.8284926833
  C         0.3311739586        6.8805302654       15.4667724047
  C        -2.7892821502        8.5995461370       13.0839888007
  C        -1.6626990818        8.0855198130       12.4716550908
  C        -1.4789599149        8.4184233788       11.0551495036
  C        -0.7447941768        9.5224220351       10.7320171478
  C        -0.5831397123        9.9525901132        9.4002820964
  C        -1.3427660622        9.3441688168        8.3684797048
  C        -2.0482123329        8.1953018440        8.7221187625
  C        -2.1067139862        7.7466828765       10.0380466779
  H        -2.5656737613        6.7947282238       10.2684375440
  H        -2.4603469005        7.4879544866        7.9432450698
  H        -1.2680764815        9.6649427087        7.3150200597
  H         0.0752511753       10.8183865739        9.3120455171
  H        -0.2357819547       10.0529382033       11.5317661886
  C        -3.8496301114        9.1634124352       12.3152736952
  C        -5.0116945981        9.6396653947       12.8899129305
  H        -5.7998822780       10.0459716854       12.2753385024
  H        -3.7196062768        9.2227183363       11.2310096414
  C         0.1509961696        6.3931272033       16.8782264349
  C        -0.8648714733        5.3815680581       17.1583226637
  C        -0.9542813128        4.8077092056       18.4254352369
  C        -0.0807004523        5.2641562740       19.4223816798
  C         0.8549062261        6.2205354935       19.2389192135
  C         1.0285279792        6.6952013837       17.9436118488
  H         1.8682476375        7.3615522209       17.8436222169
  H         1.3426586968        6.4888994413       20.1670476886
  H        -0.1901719306        4.8416479685       20.4074916597
  H        -1.6203092343        4.0321498895       18.6994892534
  H        -1.6288087445        5.1951377194       16.4034244185
  C         2.5551695644        5.9216045147       15.5809739361
  C         3.6562267357        5.4169738389       14.9479339919
  C         3.7473235088        5.2437413842       13.5016833510
  C         2.6840127677        5.6579022207       12.7803211865
  H         2.5007620406        5.4843250154       11.7580670275
  H         4.5284617638        4.6764144776       13.0377870324
  H         4.3813958632        4.9465553400       15.5924523947
  H         2.5244744026        5.9018618768       16.6184058815
  C         0.3963210098        6.2868188438       11.1751792182
  C        -0.2350601082        5.1388606322       10.6975614213
  C        -0.1516717817        4.8566492455        9.3449529560
  C         0.7196683085        5.4758758823        8.4529446460
  C         1.4232430313        6.6018891823        8.9166432646
  C         1.1231849898        7.0191480130       10.2307807663
  H         1.6011732320        7.9723260192       10.4733424742
  H         2.1341259494        7.1897864618        8.3211233180
  H         0.7985595834        5.0713278177        7.4294849762
  H        -0.6166034839        3.9311237939        8.9500796344
  H        -0.7549704675        4.4612976059       11.3652422378
