140

  C         4.5658798797       -0.7675480832       13.7609941346
  C         5.5523776239        0.0095800747       14.4475039680
  C         6.7125481109        0.4731064455       13.8317446356
  C         7.9123921679        0.9552424574       14.4674769673
  C         8.8570424308        1.5731880261       13.7195748559
  C         5.4610101121        0.3673089762       15.9051325078
  C         4.6040866809        1.4654497764       16.2618695516
  C         4.7429321536        2.0025840912       17.5304902154
  C         5.6232641691        1.3918996671       18.4834404739
  C         6.4614817877        0.2950228838       18.1742441831
  C         6.4330257075       -0.0964650134       16.8476670245
  H         8.0460406414        0.8224532661       15.5553099361
  H         9.7354353305        2.0151827758       14.1820517429
  H         3.9914450831        1.9223607154       15.5192226548
  H         4.2232822701        2.9708892876       17.7321247881
  H         5.8095924191        1.8684374142       19.4391494551
  H         7.1754530667       -0.0995274978       18.9942407966
  H         6.9989975008       -0.9983096393       16.4142503348
  C         4.5953940872       -0.8104678200       12.2944397703
  C         3.5646807998       -1.5537138298       11.6074658468
  C         2.4591073342       -2.0718771884       12.3403026194
  C         2.5353393451       -2.0677269406       13.8013013547
  C         3.6054849737       -1.5046951044       14.4417450689
  C         6.6405873798        0.5932169314       12.3565522828
  C         5.5716486803        0.0172629917       11.6363787232
  C         5.5705895301        0.3281256061       10.1877736213
  C         4.7570920842        1.4128450328        9.7435958289
  C         4.5914350670        1.6270367172        8.3517257304
  C         5.3357047490        0.9505809690        7.4564940534
  C         6.2689750727       -0.0004124061        7.8481570337
  C         6.3499749674       -0.3574756617        9.2156654966
  H         7.0733896709       -1.1031506047        9.5750244943
  H         6.7045564200       -0.5212334726        6.9876794138
  H         5.2511417130        1.0400412101        6.3315650803
  H         3.9761255657        2.4259666980        7.9002484289
  H         4.2222953797        2.0396494246       10.4093025849
  C         7.6905353579        1.2803324157       11.6330438969
  C         8.7587863607        1.6696750905       12.3487663334
  H         9.5291426096        2.1539552504       11.7793390729
  H         7.6776239491        1.3707565280       10.5608786166
  C         3.7402352068       -1.8499252926       15.8768062067
  C         4.5845192153       -2.9219669459       16.2361469956
  C         4.6640892560       -3.2826239054       17.5395480072
  C         3.9118130410       -2.6637269609       18.5548151725
  C         3.0972194429       -1.5838432778       18.2681036007
  C         2.9636363853       -1.2197699426       16.9409054580
  H         2.3498549339       -0.3415133057       16.7171851920
  H         2.6518775024       -1.0069070239       19.0952080873
  H         4.0800273802       -3.0540880057       19.5088089306
  H         5.2686679718       -4.1029598027       17.9040434592
  H         5.1122938046       -3.5282238528       15.5490919080
  C         1.4153422679       -2.5880085430       14.5603819423
  C         0.2504347521       -2.9650239172       13.9038193435
  C         0.1718546899       -2.9214432248       12.5310328507
  C         1.2527350977       -2.5058905590       11.7394656222
  H         1.1167427191       -2.4519992832       10.6217470374
  H        -0.7784824569       -3.0935599590       12.0539690924
  H        -0.6463829819       -3.2529267010       14.4352292019
  H         1.3437671986       -2.5203093492       15.6606768726
  C         3.4865454834       -1.8900499484       10.1610426939
  C         4.1303211237       -3.0176887975        9.7676196098
  C         3.9058077823       -3.6186261868        8.4975158638
  C         3.1781108519       -2.8326859721        7.5649329328
  C         2.5901893073       -1.5761040170        7.9496614124
  C         2.6563771439       -1.1163857747        9.2534099148
  H         2.2492950917       -0.1412017569        9.4869816438
  H         1.8597956015       -1.0558844491        7.3185088937
  H         2.9471557930       -3.3370176737        6.6008312406
  H         4.2153777220       -4.5767458970        8.1591590078
  H         4.6657107643       -3.5706947497       10.5218982307
  C         1.0529693030        6.2073216500       14.0290290482
  C         0.0075859988        6.9212841470       14.7813812292
  C        -1.1159697724        7.4242468362       14.0640593696
  C        -2.2450644373        8.0044951388       14.8786823095
  C        -3.3262081111        8.5148809427       14.2401992362
  C         0.1093492702        7.2944130397       16.2407918808
  C         0.7976845841        8.4503956371       16.6612237122
  C         0.7758764816        8.8635762785       17.9594889202
  C         0.0078614725        8.1932564690       18.9123637151
  C        -0.7321036363        6.9718703062       18.5385232479
  C        -0.6742119816        6.5908071252       17.1971549719
  H        -2.1709343883        8.0650977059       15.9713050814
  H        -4.1238059717        8.8522043510       14.8791306357
  H         1.4284042307        8.9386373095       15.9397567701
  H         1.3141157400        9.8100892108       18.1259957337
  H         0.0317854632        8.6952751881       19.8754907450
  H        -1.3587219604        6.4867493343       19.2630286898
  H        -1.1506078955        5.6841421172       16.8017148914
  C         1.0027490398        6.3046397169       12.5569487602
  C         2.1067717659        5.6917472758       11.8546165992
  C         3.2963277142        5.3288052014       12.5498664862
  C         3.3574653011        5.2717742402       13.9766911344
  C         2.1886920808        5.5815858186       14.6821044281
  C        -1.2520197584        7.3020757299       12.6368249135
  C        -0.1491879622        6.9138270238       11.9014697741
  C        -0.0837191704        7.2516594968       10.4493368436
  C         0.6056566460        8.4108235332       10.0127992624
  C         0.6906467868        8.7644865144        8.6771043231
  C        -0.0967433125        8.0604633985        7.7166246091
  C        -0.8561876107        6.9743022221        8.1165289160
  C        -0.7824376606        6.5262550337        9.4651256979
  H        -1.2373665159        5.5790457182        9.7718912415
  H        -1.4728450643        6.4375524979        7.3898180807
  H        -0.1921370856        8.4124894034        6.6955792296
  H         1.1185959670        9.7025169961        8.3295097748
  H         1.2197588020        8.9491946363       10.6949056094
  C        -2.5023752656        7.8398570862       12.0749550854
  C        -3.4774998056        8.4196463027       12.8225233081
  H        -4.4153715928        8.7506469554       12.3489437298
  H        -2.6398360168        7.6972928861       11.0111294318
  C         2.1133625510        5.2184281974       16.1598493120
  C         1.2845772585        4.1644017686       16.5609265178
  C         1.2491985891        3.6406263258       17.8927613151
  C         2.0584760889        4.2917555375       18.8523890459
  C         2.8020470292        5.3780157303       18.4866341213
  C         2.8122639951        5.8794771420       17.1974324793
  H         3.5293673783        6.6182203843       16.9239445295
  H         3.5001977904        5.9612141642       19.1141335381
  H         2.2097306789        3.9010949428       19.8505925031
  H         0.7966207685        2.5987409664       18.0873304370
  H         0.6433470950        3.6223368569       15.8175372569
  C         4.4347948225        4.5612733608       14.5934433873
  C         5.4782410319        4.1522396797       13.8704362206
  C         5.4769376724        4.2768922365       12.4141755971
  C         4.3415005520        4.7258641240       11.8190012616
  H         4.2831775426        4.6820542988       10.7612462702
  H         6.3917084301        3.9220527239       11.9882852458
  H         6.2905447095        3.6501929021       14.3597946345
  H         4.3651499741        4.3699965860       15.6937909702
  C         2.0175120655        5.2660698368       10.3968403567
  C         1.1408774012        4.1995796228       10.0677115144
  C         0.8657347261        3.7451557450        8.7367734599
  C         1.7048915517        4.3467030554        7.7099740582
  C         2.5601503873        5.4226625553        8.0187463675
  C         2.8118948748        5.7728854596        9.3176224678
  H         3.4933175510        6.5610855453        9.5715267368
  H         3.1010102971        5.8614835415        7.1457315659
  H         1.6405267295        3.9889712296        6.6302669180
  H         0.1322461325        2.8991014604        8.5615029997
  H         0.5742383329        3.8018609569       10.8825589970
