140

  C         3.8949489392       -0.0932022754       14.3080282291
  C         4.9430383772        0.5641345508       14.9609249274
  C         6.0142197972        1.0251227152       14.1782666067
  C         7.0427949970        1.7446720142       14.8701111982
  C         8.1136536280        2.2503818608       14.2074325252
  C         4.8129162364        0.8966342843       16.3865602700
  C         4.0421368631        2.0137514437       16.7004867811
  C         3.9563514204        2.4953610489       17.9406750226
  C         4.6564916337        1.8723472680       19.0009593477
  C         5.4614579177        0.7576335840       18.7272726349
  C         5.5898254457        0.3364288997       17.3811941956
  H         6.8540841646        2.0087003278       15.9212027913
  H         8.8153108810        2.8191747521       14.8068146567
  H         3.4967996672        2.5905635189       15.9367898499
  H         3.1607853744        3.1960300726       18.2299947702
  H         4.6331022144        2.3373539386       19.9671427995
  H         6.0109902631        0.2305956481       19.4661356184
  H         6.1877953874       -0.5985157891       17.3043831336
  C         3.8601321218       -0.0560640587       12.7652079932
  C         2.7606565932       -0.5368664805       12.0651471807
  C         1.6043537226       -1.0061491028       12.7976021354
  C         1.6825863584       -1.2515898555       14.2593583246
  C         2.8046528183       -0.7676946596       15.0035686568
  C         6.0809433894        0.9153020622       12.7586888344
  C         4.9772935611        0.4465995041       12.1229260115
  C         4.8768826508        0.8498623628       10.6465703920
  C         4.1940958173        1.9798014107       10.2544565172
  C         4.1582062933        2.4484021415        8.9235961480
  C         4.7478960860        1.6460352696        7.9211003904
  C         5.4259215551        0.4617139320        8.3423454327
  C         5.5447382016        0.1332407053        9.7080027372
  H         6.0199864534       -0.7997622519       10.1042189581
  H         6.0087624299       -0.1603026759        7.6121360687
  H         4.6869037314        1.8281193224        6.8307366844
  H         3.4874986303        3.2389634866        8.5606256264
  H         3.7452983058        2.6827710741       10.9853423950
  C         7.2726631799        1.4247487174       12.1365438120
  C         8.2977028915        2.0672496728       12.7842024157
  H         9.1509042692        2.4154481771       12.2196828281
  H         7.3964169165        1.4696976176       11.0409259408
  C         2.9482299294       -1.2256368394       16.4750436213
  C         3.7306621601       -2.3415160774       16.8484013737
  C         3.6627457147       -2.7756224399       18.1965439677
  C         2.8158923319       -2.1861884962       19.0846631884
  C         2.0792861963       -1.0485614059       18.7180585336
  C         2.2533278157       -0.5803409644       17.4522446028
  H         1.8018662648        0.3403877072       17.0163364038
  H         1.4088202754       -0.5393432356       19.3696113905
  H         2.5809935525       -2.6824401286       20.0684355048
  H         4.2028946852       -3.7101380695       18.5038703046
  H         4.2993480797       -2.8925538284       16.0765724863
  C         0.6571947454       -2.0206946770       14.8530511318
  C        -0.2794546202       -2.6054338918       14.0402519254
  C        -0.4235912581       -2.3085967788       12.6857881290
  C         0.4968952887       -1.5487224059       12.0945594503
  H         0.3570247040       -1.2912878371       11.0664381161
  H        -1.3605991300       -2.6417570815       12.2198359132
  H        -1.0787025305       -3.2695689841       14.4673710038
  H         0.6486751277       -2.1718960912       15.8990856224
  C         2.7666874215       -0.9106672543       10.6182080708
  C         3.3275988096       -2.1288505001       10.2331493951
  C         3.2120684976       -2.5418240108        8.8862803814
  C         2.3647506267       -1.8139602621        8.0103912629
  C         1.6948506608       -0.7111041496        8.4508059193
  C         1.9450612190       -0.2296432782        9.6993626671
  H         1.3757876470        0.6063569210       10.1002959935
  H         0.9184987650       -0.1968012805        7.8467508336
  H         2.3336895696       -2.1370813466        6.9064318401
  H         3.6541146438       -3.4077460587        8.4031291412
  H         3.9207119235       -2.6938948881       10.9048199226
  C         0.3974290904        6.9511472024       14.0710251192
  C        -0.6880828368        7.5038846497       14.7452799906
  C        -1.8104373941        8.0145065187       14.0989643537
  C        -2.8487766872        8.7688662852       14.8354758950
  C        -3.8703850627        9.4185188054       14.1606818970
  C        -0.4901451897        7.9391393130       16.1709193377
  C         0.1561033536        9.1479246418       16.3562523876
  C         0.2840779129        9.6383281449       17.6623735495
  C        -0.2255085328        8.9240534509       18.7854357645
  C        -0.8821263120        7.7320594293       18.5235110600
  C        -1.0492131116        7.2508127127       17.2375241836
  H        -2.9035787920        8.7046781881       15.9151954138
  H        -4.6455244202       10.0462432088       14.6160217988
  H         0.5212490348        9.6404432692       15.4888097850
  H         0.6773791672       10.6312656586       17.8204262667
  H        -0.1243801438        9.3116402445       19.8059197720
  H        -1.1509236705        7.0077275506       19.3000588001
  H        -1.6156818654        6.3467430118       17.1288249664
  C         0.3483867761        6.9131474008       12.5855866943
  C         1.4482763980        6.3111701250       11.8463986712
  C         2.5998894676        5.8018965883       12.6026672799
  C         2.6186634092        5.8510429530       14.0214913189
  C         1.5227155227        6.4574412214       14.6890758442
  C        -1.8549158956        7.9864045417       12.6557159105
  C        -0.7548587071        7.4646914317       11.9335894637
  C        -0.6449291471        7.9179228470       10.5248868496
  C         0.1367656397        9.0275680675       10.1931421104
  C         0.1176487407        9.5856852771        8.9284477908
  C        -0.7774016831        9.0773268375        7.9769934230
  C        -1.5905632212        7.9806523511        8.2753355927
  C        -1.5048420847        7.3804425768        9.5443935142
  H        -2.2237672992        6.5813703140        9.7645201169
  H        -2.3382411078        7.6563046269        7.6115392060
  H        -0.8616049460        9.5798346488        6.9997185070
  H         0.8335507820       10.3848345938        8.6145673212
  H         0.7603399175        9.4234721486       11.0201935686
  C        -2.9141712739        8.7301347275       12.0445702419
  C        -3.8761684845        9.3822607611       12.7132247825
  H        -4.5352811661        9.9967110530       12.1379547029
  H        -2.8421635520        8.8606991226       10.9951492126
  C         1.4848889948        6.0490822142       16.1722271532
  C         0.7706041894        4.8303159526       16.5010784707
  C         0.6568021459        4.5067824022       17.8952144317
  C         1.2795911258        5.2053428793       18.8942279204
  C         2.1173672869        6.2518823885       18.5018096236
  C         2.2002130841        6.7207554092       17.2234475151
  H         2.7965779309        7.6471426962       17.0873222251
  H         2.5085644469        6.8378871346       19.3288923606
  H         1.1140426599        4.9533336807       19.9344032204
  H        -0.0388834439        3.7102203909       18.1648886294
  H         0.2830307867        4.1567769872       15.7848990948
  C         3.6943476701        5.2150368345       14.6744191849
  C         4.6771483010        4.5355264377       13.9403723534
  C         4.6532587217        4.4392619233       12.5099508442
  C         3.5695407753        5.0537652156       11.8664897491
  H         3.4230343240        4.9991853747       10.8145775598
  H         5.3955506960        3.7560669063       12.0239846308
  H         5.4997343437        4.0144957097       14.4298320644
  H         3.7928649748        5.2080805136       15.7946764737
  C         1.3459493993        5.9396193934       10.3787077264
  C         0.5493507534        4.8319449322        9.9826436823
  C         0.6569845396        4.3090981975        8.7038263308
  C         1.3653316952        4.9895840804        7.7541667356
  C         2.1352169494        6.1039658273        8.1251238044
  C         2.1668366429        6.5673757296        9.4462286274
  H         2.8875968671        7.2486552069        9.8386004221
  H         2.6856436697        6.6534529837        7.3351920251
  H         1.3606033093        4.6334645993        6.7385265000
  H         0.1017037057        3.3893640711        8.4560725608
  H        -0.2314756663        4.4875192313       10.6617623304
