140

  C         3.5417287896       -0.0340418471       14.7095552506
  C         4.4356480650        0.7896553556       15.4815002914
  C         5.6163605952        1.3555562623       14.8903628131
  C         6.6988532111        2.0252372680       15.6049910696
  C         7.8069803245        2.5890276821       14.9051692709
  C         4.3107868276        1.1046382393       16.9844211929
  C         3.5959923285        2.2574076520       17.2877444342
  C         3.3931266448        2.6519153456       18.6114293832
  C         4.2417219127        2.0571955803       19.5645613666
  C         5.1211359255        1.0459412738       19.2198363694
  C         5.0994887719        0.4961271216       17.9703098658
  H         6.5697351604        2.2285406654       16.6830138220
  H         8.5741346309        3.1899918510       15.5108064728
  H         2.9731129836        2.6493754849       16.4713902541
  H         2.7178986641        3.4313555472       18.9123227781
  H         4.1568293961        2.3135240836       20.6299170457
  H         5.8490893465        0.6914992386       20.0029364348
  H         5.7281903464       -0.3247467434       17.6961447776
  C         3.5854510565       -0.0854589491       13.2731266436
  C         2.5785639485       -0.7974216372       12.5297058884
  C         1.4371134616       -1.2682453524       13.2001086099
  C         1.4204331355       -1.1911238909       14.6258328996
  C         2.4950858340       -0.7452455914       15.3798126135
  C         5.5915936515        1.3466963724       13.4107676512
  C         4.5770647384        0.7262485421       12.6535238927
  C         4.6158509683        1.0046404509       11.1256173251
  C         3.9130347339        2.1110009273       10.6547613732
  C         3.8294523108        2.4305320804        9.2865269966
  C         4.6897320742        1.7978468693        8.3644195426
  C         5.4561135666        0.7325867851        8.8941630909
  C         5.3602875260        0.2900457836       10.1799573883
  H         6.0249824621       -0.4672044464       10.5386792798
  H         6.1461334635        0.2147672673        8.1938488421
  H         4.9059151189        2.1312608465        7.3771476113
  H         3.0373412654        3.1341142739        9.0536593648
  H         3.1893704734        2.6593364861       11.2289808379
  C         6.7309128935        2.0052549428       12.7229648049
  C         7.8316447632        2.4680104588       13.4318470015
  H         8.7294893298        2.7897962075       12.8713940626
  H         6.6982667892        1.9123882736       11.6457936275
  C         2.4313976637       -1.0825952377       16.7941177104
  C         3.1903367291       -2.1229286252       17.3810023666
  C         3.1147441242       -2.3333944962       18.7500319162
  C         2.2531946254       -1.6494831301       19.5334237117
  C         1.3431209595       -0.6517736846       18.9391334012
  C         1.5116948525       -0.3553064957       17.6314861615
  H         0.8656013151        0.3800182229       17.1372075093
  H         0.6031777660       -0.0789734213       19.5590206819
  H         1.9959613811       -1.8412870765       20.5289399971
  H         3.5909960792       -3.1808665615       19.1997559967
  H         3.6687945721       -2.9225263355       16.8188775918
  C         0.3213226812       -1.8577352348       15.3385603266
  C        -0.6544785647       -2.4811343665       14.6747872080
  C        -0.6973413460       -2.4798597626       13.2298043107
  C         0.2841194886       -1.8299205299       12.4959934051
  H         0.2732506115       -1.6843310782       11.3844831821
  H        -1.5257700847       -3.0747256186       12.7593930075
  H        -1.5212659993       -2.9210571933       15.1332002362
  H         0.2379030485       -1.8764720957       16.4068800782
  C         2.6681871701       -1.0028638935       11.0756993095
  C         3.2271594985       -2.2368439510       10.6492259605
  C         2.9845667562       -2.8396050783        9.4099419737
  C         2.1297287111       -2.1899397534        8.5011376549
  C         1.6716027405       -0.9089839836        8.8071649003
  C         1.9101044837       -0.3802644128       10.1372325067
  H         1.4270249191        0.5364065762       10.3897258321
  H         1.0201616776       -0.3840004840        8.1387933785
  H         1.8043214565       -2.6719721828        7.5301887460
  H         3.3334363744       -3.8603477414        9.1766139207
  H         3.8025625169       -2.7717824761       11.4634279537
  C        -0.2630626296        7.3382140068       14.5041203912
  C        -1.2835603995        8.0885322891       15.1302012247
  C        -2.3258043091        8.6892201585       14.4212072886
  C        -3.4753319176        9.3441651417       15.0134075255
  C        -4.4122514120        9.9497289662       14.2286543017
  C        -1.2460562251        8.5092116385       16.5529341667
  C        -0.2730650643        9.3500047282       17.0948624160
  C        -0.2830382243        9.7358773491       18.4364241032
  C        -1.3274108005        9.2969093607       19.2363247312
  C        -2.3415116441        8.4417433531       18.7776676465
  C        -2.3180390007        8.0325067230       17.4202344604
  H        -3.5753520668        9.4568863314       16.1031146156
  H        -5.2792419787       10.5645483266       14.6033171555
  H         0.6305265299        9.6217302287       16.5677176730
  H         0.3930699096       10.4872354283       18.7854578618
  H        -1.5129853404        9.8970243746       20.1397705731
  H        -3.2642119411        8.2805999888       19.3706751876
  H        -3.1110953808        7.4209572115       17.0024420037
  C        -0.2719547934        7.2425169135       13.0316005972
  C         0.8007003032        6.4756309792       12.3471824779
  C         1.8831365106        6.0134116626       13.1508033400
  C         1.7799509624        6.0238693376       14.5724085834
  C         0.6911261984        6.5829669553       15.2137715543
  C        -2.2443053045        8.5912141349       12.9667657722
  C        -1.2446695688        7.8724904717       12.2942966017
  C        -1.0883746757        8.0982001633       10.8364475351
  C        -0.3787481793        9.2207742548       10.4642161959
  C        -0.5329837778        9.6669909176        9.1037006373
  C        -1.3545535098        8.9853646453        8.2079213657
  C        -1.9687538866        7.8146574428        8.6517395647
  C        -1.7549184022        7.3492477338        9.8855543449
  H        -2.1968028067        6.4251203853       10.1742465020
  H        -2.8057752653        7.3854484175        8.0618934817
  H        -1.4533849219        9.4185315418        7.2013035781
  H        -0.0582071756       10.5619340574        8.7442820866
  H         0.0468118512        9.8733274634       11.2181077004
  C        -3.2270574031        9.2376327135       12.2066020076
  C        -4.2496259095        9.9404684114       12.8227504554
  H        -4.9536642634       10.5269687660       12.1997391319
  H        -3.1457245768        9.4555082798       11.1468317021
  C         0.5579366735        6.2342965583       16.6770671269
  C        -0.3410409427        5.2560563976       17.0716042495
  C        -0.4405645539        4.7787395270       18.4206488946
  C         0.4620695001        5.3735616919       19.3504972022
  C         1.4237203595        6.3004655928       18.9414761756
  C         1.4892530905        6.6489683277       17.6086447868
  H         2.0741650843        7.5064386323       17.2826352427
  H         2.2166552333        6.6822927498       19.5954742934
  H         0.3794492031        5.0500597460       20.4026212742
  H        -1.2646315302        4.1117421446       18.7451129746
  H        -1.0276130955        4.8425131263       16.3312201879
  C         2.8361973164        5.4189191222       15.2513028649
  C         3.9304703626        4.8363868403       14.6819284173
  C         3.9760034414        4.7189315182       13.2830281930
  C         2.9696199222        5.2266925967       12.5432661658
  H         2.9147785074        5.0145550407       11.4987667066
  H         4.7291839863        4.1572683379       12.7367874322
  H         4.7635609933        4.5207982441       15.2963855987
  H         2.8265730447        5.4723305397       16.3654730920
  C         0.7808669597        6.0439908027       10.9639483474
  C         0.0225839492        4.9440362624       10.4907836418
  C         0.0928395261        4.5718096687        9.1728101195
  C         1.0223413215        5.1688672460        8.3042529101
  C         1.8617681543        6.2052001850        8.7731917686
  C         1.6949533744        6.6363929503       10.0958949930
  H         2.2920758553        7.4884127744       10.4120211274
  H         2.6067493066        6.7681106822        8.1530443139
  H         1.0077624702        4.7680941724        7.2979171971
  H        -0.6405581434        3.8342347392        8.8254807645
  H        -0.5522167370        4.3915389916       11.2172025474
