140

  C        11.8574176258        1.1248151696        1.3877693540
  C        12.8848938498        1.8442283629        2.0912337799
  C        13.9429952540        2.4126260834        1.3490257843
  C        14.9992109231        3.0711056924        2.0851511977
  C        16.0742604012        3.5432959184        1.4334596239
  C        12.7824423919        2.2149972593        3.5171587572
  C        11.9200659402        3.2319023260        3.9224211202
  C        11.8254555835        3.6048470381        5.2964226245
  C        12.6317238414        3.0471570894        6.2462492196
  C        13.4676715811        1.9774624179        5.8026051803
  C        13.5342631353        1.5462099028        4.4986086717
  H        14.8920036179        3.2593595239        3.1293726677
  H        16.9476423343        3.9510270428        1.9972967686
  H        11.3121421029        3.7447177331        3.2182089523
  H        11.0468391077        4.3096321813        5.5744763924
  H        12.5948184976        3.2842837632        7.3244153090
  H        14.1242677258        1.4857398293        6.5379057368
  H        14.2639501252        0.8818878172        4.0712038350
  C        11.7493611271        1.2535738487       -0.0925622079
  C        10.7667004148        0.5525333749       -0.7850969284
  C         9.6072425605        0.0314859875       -0.0856574062
  C         9.6365319647       -0.0528723821        1.3773680046
  C        10.7882722326        0.4346074942        2.0793305407
  C        13.8682047243        2.5233213828       -0.1145149575
  C        12.7539815256        2.0606712425       -0.8048327929
  C        12.6083921540        2.5105290404       -2.2315037033
  C        11.6752313914        3.4255368935       -2.5503014482
  C        11.5904839728        3.9592246931       -3.8406945049
  C        12.4742270490        3.5455374494       -4.8333933177
  C        13.4180375989        2.4935643556       -4.5326554258
  C        13.4943179285        2.0357182698       -3.1585197587
  H        14.2254783897        1.2811043176       -2.8076613530
  H        14.0200389789        1.9567828839       -5.3195787816
  H        12.4153293770        3.9742419774       -5.8048623664
  H        10.8394264500        4.7425899276       -4.0393403236
  H        10.9414018365        3.7537641179       -1.8137709922
  C        14.9761003384        3.1678682549       -0.7515913267
  C        16.0305775199        3.5815638089        0.0164134436
  H        16.9624682618        3.9696705311       -0.4248023725
  H        14.9245485143        3.2841347914       -1.8094953836
  C        10.8795707438        0.0234765864        3.5229070593
  C        11.6487165637       -1.0315255962        3.8689913111
  C        11.7223597601       -1.4731144231        5.1956282252
  C        10.9487132689       -0.8860119656        6.1850615108
  C        10.1537918272        0.2303142116        5.8723956534
  C        10.1445181209        0.6709494206        4.5668375169
  H         9.5200988423        1.4929808523        4.3065148449
  H         9.4758854055        0.6812004025        6.5995457355
  H        11.1372639884       -1.2116590840        7.2216408849
  H        12.2343723657       -2.3956770543        5.5458779345
  H        12.1889764531       -1.5997832135        3.0598523289
  C         8.5036420130       -0.5147490769        2.1348665492
  C         7.3657187208       -0.9770396529        1.5048036870
  C         7.3071133546       -0.8716706659        0.0526443166
  C         8.3946863539       -0.4182403153       -0.7061070634
  H         8.2911576288       -0.4425237959       -1.8022677951
  H         6.3326941016       -0.9514702008       -0.4255311371
  H         6.4559362718       -1.3397938345        2.0636954410
  H         8.6530206446       -0.6428003974        3.2656927876
  C        10.9387030613        0.0704223369       -2.2278483314
  C        11.9430604010       -0.8160985847       -2.5749444426
  C        12.1024344134       -1.3373946082       -3.9148076493
  C        11.0514280322       -1.1351278367       -4.8366410009
  C        10.0560679477       -0.2562227878       -4.4913374813
  C         9.9650336874        0.3412297694       -3.2219381904
  H         9.2444622515        1.0776419747       -3.1662989610
  H         9.2868003895        0.0610947581       -5.2132202158
  H        11.0776166761       -1.5490796792       -5.8702322085
  H        13.0723774510       -1.8711824977       -4.0390807862
  H        12.6873970457       -1.0985877697       -1.8972766081
  C         8.1312557945        8.5642862639        1.4637996263
  C         7.1046827451        9.3327459801        2.1793360257
  C         5.9888171572        9.8496355899        1.4964056586
  C         4.9214062691       10.5280483907        2.1872714477
  C         3.8002688524       10.8878377631        1.4951479955
  C         7.2038579614        9.6319236443        3.6044448811
  C         8.1684152507       10.5477152058        4.0536129931
  C         8.1874327137       10.9258056581        5.4086945297
  C         7.1512177956       10.4051321319        6.2771448164
  C         6.1925063779        9.4689659537        5.8211211228
  C         6.2638971305        9.1026811185        4.4913148645
  H         4.9791466913       10.6502394755        3.2601709324
  H         2.9958102208       11.3447691649        1.9600600065
  H         8.8717046199       10.9555723380        3.3479841877
  H         8.7929977717       11.6594875566        5.8319170389
  H         7.1063738250       10.6440005908        7.2943698031
  H         5.5329775862        9.0822390590        6.5977585671
  H         5.6933640807        8.2712327187        4.1260298206
  C         8.1047601588        8.4951313816        0.0202609103
  C         9.1205536179        7.7125951603       -0.6845485923
  C        10.2262240249        7.1492057024        0.0234963709
  C        10.2628347350        7.2389943508        1.5055487492
  C         9.1729880845        7.8161538918        2.2078294227
  C         5.9536453038        9.7914436943        0.0563022725
  C         7.0842747233        9.2681922244       -0.6326836476
  C         7.1828846607        9.5513052311       -2.1318724700
  C         8.0954699544       10.5264971281       -2.5404943160
  C         8.4483083550       10.7267068895       -3.9280855210
  C         7.5722145226       10.1592271291       -4.8685617376
  C         6.5612393410        9.2385986512       -4.4004928497
  C         6.3941280740        8.8706442874       -3.0831429548
  H         5.7035390284        8.1070906902       -2.7160836113
  H         5.9605725105        8.6678469955       -5.0665570090
  H         7.7297401629       10.2911923924       -5.9720137744
  H         9.1513556023       11.4878963731       -4.1830554149
  H         8.7160989072       10.9636329330       -1.7540503185
  C         4.7930432387       10.2364113232       -0.6000776829
  C         3.6909754006       10.6479920721        0.1051122866
  H         2.7330991312       10.8368200154       -0.3890340175
  H         4.7689625060       10.0257628774       -1.6732565314
  C         9.1714339009        7.5015917394        3.7075806762
  C         8.1938475930        6.5569118331        4.1236720305
  C         8.3294522121        5.9250548216        5.3731297458
  C         9.3465564093        6.3193202108        6.3122479131
  C        10.1888592581        7.3874167096        5.9192453512
  C        10.0746106395        7.9580340065        4.6744974466
  H        10.6471613009        8.8841510808        4.4609460046
  H        10.9160996549        7.5856654250        6.6722890888
  H         9.5094709051        5.7262989847        7.2103926551
  H         7.5647260938        5.1369849785        5.4205282359
  H         7.3958398366        6.2657780205        3.4530347832
  C        11.4102838929        6.6575999953        2.1948550562
  C        12.4493683349        6.0861974765        1.4907143842
  C        12.3997262493        6.0132899194        0.0494474000
  C        11.2666432869        6.4451019035       -0.6286169657
  H        11.2205309009        6.2940202133       -1.6856603186
  H        13.1108417337        5.3415377557       -0.4790464724
  H        13.3172714789        5.7553112514        1.9957962581
  H        11.4209520343        6.7196615746        3.2555755085
  C         8.9984213047        7.4085855389       -2.1736569530
  C         8.0997166043        6.3699409453       -2.5474508325
  C         8.1074821325        5.8744893801       -3.8481594992
  C         9.0108556770        6.3720779060       -4.8353466772
  C         9.9718656679        7.3275908748       -4.4931666334
  C         9.9847974484        7.8747121950       -3.1784381947
  H        10.7036233964        8.6500422752       -2.9001994595
  H        10.6868980631        7.6315247575       -5.2382596492
  H         9.0027893878        5.9310729608       -5.8185513423
  H         7.4356907413        5.0397738497       -3.9961557332
  H         7.4164006294        6.0016440417       -1.7019652315
