140

  C         3.0953867108        0.5145099882       14.6346227779
  C         3.9965106080        1.2236322777       15.3824860677
  C         5.1845260804        1.7362561624       14.7970463259
  C         6.1504055164        2.5107038603       15.6027388615
  C         7.3233141912        2.9535048944       14.9650596523
  C         3.9093051946        1.4571270009       16.8679361851
  C         3.1361490714        2.5314624373       17.3637330915
  C         3.2685313628        2.8080387066       18.7527294491
  C         4.1551306133        2.1388191984       19.5489004434
  C         4.9789508938        1.2002816933       19.0270226435
  C         4.8680897713        0.8137230294       17.6863055570
  H         6.0300379508        2.7644133547       16.6421212420
  H         8.0006894364        3.4849101341       15.5765802926
  H         2.3455190752        2.9861049377       16.7816684940
  H         2.8220719289        3.7008183662       19.2359531962
  H         4.0247293871        2.2975683479       20.6144439054
  H         5.6840733251        0.7692870665       19.7224964708
  H         5.4560474142        0.0089172388       17.2894884401
  C         3.1956278550        0.4921920602       13.1264131770
  C         2.1055744621       -0.1615383980       12.4310421413
  C         1.0075934301       -0.7035182415       13.0651787452
  C         0.9643332491       -0.7338313552       14.5260218249
  C         2.0146908377       -0.2407940899       15.2929884489
  C         5.3631567671        1.5935627977       13.3568056032
  C         4.4192709461        1.0087819777       12.5648709469
  C         4.4089438658        1.3573786353       11.0747194717
  C         3.6977517532        2.4582531869       10.5450693217
  C         3.5968644850        2.6988193710        9.1034816666
  C         4.3075809172        1.8596716575        8.2424587902
  C         5.1229091373        0.8433633148        8.7771171183
  C         5.1619722931        0.6130849187       10.1337073818
  H         5.7142938908       -0.3043647619       10.3807568655
  H         5.6093041909        0.0841464371        8.1558665074
  H         4.3372034256        2.0466080980        7.1681349350
  H         3.0427341998        3.5740254450        8.8686737299
  H         3.1268929592        3.1513140330       11.1473592217
  C         6.5580296264        2.1754502196       12.7812733942
  C         7.5424579098        2.7409065619       13.5312497413
  H         8.4478508222        3.0741276980       12.9930710208
  H         6.6928421067        2.0220677900       11.6658327828
  C         2.0238598653       -0.6703652612       16.7728418933
  C         2.7951960121       -1.7791734753       17.0442643826
  C         2.7988070484       -2.3245060829       18.3431179863
  C         1.9220356015       -1.8450142977       19.3095985951
  C         1.1514164409       -0.6951198077       18.9794643294
  C         1.2425233812       -0.0534598642       17.7497827090
  H         0.7894253861        0.8999891645       17.4692597859
  H         0.3806070960       -0.4634276730       19.6791519051
  H         1.7905171196       -2.3331943340       20.2689341994
  H         3.3789783619       -3.2127761908       18.5986715480
  H         3.5089791176       -2.1490264316       16.2855957147
  C        -0.0702646563       -1.5232990097       15.1469781768
  C        -1.0759032599       -2.1699476043       14.4838067528
  C        -1.0398688587       -2.2448637063       13.0723713296
  C        -0.0159482210       -1.5067077146       12.4181770929
  H         0.0463586635       -1.5549510760       11.2937101348
  H        -1.6797999840       -2.8725869729       12.5018898633
  H        -1.8504868129       -2.7552109747       14.9647494471
  H        -0.2574012479       -1.2895810438       16.2082269479
  C         2.2616677510       -0.5305811289       10.9243889718
  C         2.8569509238       -1.7674623016       10.6027691386
  C         2.7675729069       -2.2433478896        9.2748558090
  C         2.1371441964       -1.4775097932        8.2599223379
  C         1.5631856796       -0.2586145283        8.5472344724
  C         1.6457331452        0.1990293448        9.8860523827
  H         1.2153097397        1.1483092774       10.2341626795
  H         0.8717538617        0.2763570374        7.8447588274
  H         2.0823472597       -1.9469718542        7.3183283884
  H         3.0565746431       -3.2841432594        9.1278351845
  H         3.3884733040       -2.3557655070       11.4035020556
  C        -0.5770144162        7.5931377652       14.6962686760
  C        -1.6643822451        8.3245370231       15.3413700268
  C        -2.7414683682        8.8174216587       14.5804763744
  C        -3.7949352817        9.5249786801       15.2277620990
  C        -4.8884070800       10.0120919869       14.5291939123
  C        -1.6952525668        8.6102136363       16.8485210740
  C        -0.8936072172        9.6266857009       17.3593234636
  C        -0.8602846718        9.9212390532       18.7348647287
  C        -1.7167350499        9.2502639500       19.6114861815
  C        -2.6090462595        8.2879441254       19.0715668102
  C        -2.6575252761        8.0213379383       17.7105325303
  H        -3.8604331852        9.4397963917       16.3047870309
  H        -5.6872210818       10.6429906402       14.9927411744
  H        -0.2767490176       10.1573247511       16.5809407579
  H        -0.2166066489       10.6999456070       19.1315615411
  H        -1.6661130155        9.3405414521       20.7007753622
  H        -3.2529285940        7.7760283320       19.7966275516
  H        -3.2673664160        7.2459703939       17.2770849599
  C        -0.5749406135        7.4600557281       13.2282738415
  C         0.5824591516        6.8287935125       12.6639282185
  C         1.6335424093        6.3234916941       13.4596979398
  C         1.4895420388        6.3283739462       14.9148674678
  C         0.3547535355        6.9324609061       15.5461406848
  C        -2.7643243060        8.5999901034       13.1605773456
  C        -1.6913171384        7.9889474384       12.4755868974
  C        -1.6170506893        8.3035171008       10.9857859755
  C        -0.7355969730        9.3445795772       10.6078566477
  C        -0.6176720929        9.8099215097        9.3198304140
  C        -1.3738732932        9.3242269924        8.2561594485
  C        -2.2536526530        8.2935513161        8.5962984053
  C        -2.3977472491        7.7867943494        9.8929026496
  H        -3.0679474491        6.9061401278       10.0538644784
  H        -2.8228910212        7.7939547429        7.8371398945
  H        -1.1908818441        9.7131951251        7.2452978186
  H        -0.0254492251       10.7029355773        9.1110699621
  H        -0.2432065396        9.8634208439       11.4061769421
  C        -4.0234172581        9.0113740953       12.5132431285
  C        -5.0026069287        9.7321771681       13.1514634544
  H        -5.8386242890       10.1991140692       12.6083781788
  H        -4.0945169733        8.9138767077       11.4534725027
  C         0.1522254375        6.5055775776       16.9757592997
  C        -0.6944412940        5.4103069689       17.1757780840
  C        -0.7877104672        4.7898059746       18.4398579868
  C         0.1201731186        5.2252727891       19.4833715298
  C         0.9028437491        6.4057554463       19.3115452619
  C         0.8761824152        7.0824608468       18.0194656214
  H         1.4338541033        8.0242856476       17.8361935781
  H         1.5871610256        6.7575389596       20.0396752084
  H        -0.0148889271        4.6420244525       20.3857749822
  H        -1.5199684482        4.0247800575       18.6401770719
  H        -1.1324163288        5.0252489773       16.2737620647
  C         2.4631305996        5.5020220301       15.6176567764
  C         3.5474696673        4.9972646468       14.9853700603
  C         3.7335716355        5.1397960201       13.6006834645
  C         2.8082851367        5.7423729222       12.8039515233
  H         2.7738251045        5.6517208614       11.7162361987
  H         4.5391156030        4.5685562302       13.1709518108
  H         4.3024304522        4.4484983129       15.5008057152
  H         2.3836624627        5.2428474427       16.6497411096
  C         0.5639497990        6.4721323671       11.2634673237
  C        -0.2033450287        5.3049073142       10.9273236239
  C        -0.1554790870        4.8045629086        9.6235099666
  C         0.4104599330        5.4973614794        8.5251177095
  C         1.1721827045        6.6461088332        8.8225417234
  C         1.2551383528        7.0503770830       10.1847461882
  H         1.9473291452        7.8862092441       10.3259537846
  H         1.6875581640        7.1703191860        8.0378969614
  H         0.3414777548        5.1289021706        7.4981373945
  H        -0.6261592877        3.8469007944        9.4013830456
  H        -0.6245214905        4.7167311959       11.7736007692
