140

  C         4.9050404834       -0.1745931298       16.0750580118
  C         5.9768767061        0.4804383243       16.7672065482
  C         7.1014463426        0.9581411200       16.0849754008
  C         8.2475626374        1.5556200566       16.6825092029
  C         9.3308594771        2.0597806360       16.0008292506
  C         6.0749833784        0.7521315811       18.2590884554
  C         5.2714983746        1.7319251608       18.8027753948
  C         5.3929515522        2.2910069360       20.0992605038
  C         6.2117769300        1.5705546652       20.9584817929
  C         6.8902044501        0.4432254946       20.5199218608
  C         6.9337922150        0.0229461638       19.1989643659
  H         8.2538948994        1.6918348718       17.7889450610
  H        10.1076906128        2.4696815948       16.5849040463
  H         4.6267678885        2.2695785021       18.0774590450
  H         4.7781742368        3.1877549394       20.3635610812
  H         6.1923894286        1.6602232524       22.0427297260
  H         7.4436853215       -0.0547833505       21.2693366515
  H         7.5106247950       -0.7767908380       18.8591970189
  C         4.9107069190       -0.2322648835       14.5512179268
  C         3.9237572279       -1.0080608765       13.9352030758
  C         2.8605741663       -1.5967359089       14.6686900599
  C         2.7691474819       -1.5159208596       16.1165567444
  C         3.8789005951       -0.9222158547       16.7886605357
  C         6.9915046112        1.0809739392       14.6269237321
  C         5.9714816791        0.4360297370       13.8808169514
  C         5.8954603811        0.8849515313       12.4623770470
  C         5.2622394875        2.0369655992       12.0470728760
  C         4.9409203593        2.4147068665       10.7365752524
  C         5.3269589577        1.5199791525        9.7160755918
  C         6.2060883052        0.4808521562       10.0617740364
  C         6.4281222387        0.1063296036       11.3899720556
  H         6.9500776371       -0.8079212902       11.6308772354
  H         6.7412926375       -0.1274061708        9.3230440650
  H         5.0524743195        1.6744498740        8.6868340437
  H         4.3621655319        3.2857157368       10.6078474642
  H         4.9528216568        2.7236916879       12.8885820220
  C         8.1051963226        1.7697821746       13.9601819185
  C         9.2471746064        2.1431143894       14.6182806829
  H        10.0367390161        2.6392087142       14.1044121902
  H         7.9900214958        1.8612033717       12.9059447605
  C         3.9805427685       -1.2337025455       18.2421869630
  C         4.7811256757       -2.3131052808       18.6771622759
  C         4.7985155781       -2.6847521782       20.0481665657
  C         3.9594082299       -2.0636907164       20.9315042688
  C         3.0671878300       -1.0038091116       20.5439401101
  C         3.0553645878       -0.6288081460       19.2112312300
  H         2.4072324477        0.1393737225       18.8204113080
  H         2.2578189142       -0.6859619162       21.2251688168
  H         4.0205384152       -2.2137195448       22.0142770288
  H         5.4744758233       -3.4353135804       20.4471852578
  H         5.5786297614       -2.7969977658       18.0622239886
  C         1.5855582212       -1.9680433744       16.7640290325
  C         0.6341021045       -2.6444921014       16.0485185662
  C         0.7330634954       -2.7836902254       14.6565875246
  C         1.7843915830       -2.1935380730       13.9459202840
  H         1.8282771680       -2.4571626291       12.8589269219
  H        -0.0566765062       -3.2903391368       14.1136844198
  H        -0.2958330269       -2.9133823047       16.5944181532
  H         1.5445081935       -1.8311982380       17.8949979004
  C         3.9084494719       -1.2218197636       12.4273894245
  C         4.5482253316       -2.3034877561       11.8125167785
  C         4.3812180562       -2.6861422494       10.4740040172
  C         3.4483207986       -1.8072476858        9.7803300893
  C         2.7765956473       -0.7476645668       10.3526790159
  C         3.0700215890       -0.3743582243       11.6744255631
  H         2.4093248057        0.3271940956       12.1940521124
  H         2.0869737803       -0.1540635574        9.7099326532
  H         3.2178670431       -2.1112439099        8.7344999181
  H         4.9195978759       -3.5489110102       10.0694143044
  H         5.1866403662       -2.9200608278       12.4689943684
  C         1.3216120520        7.1870739657       16.1713861157
  C         0.2614116174        7.8532852781       16.8838178187
  C        -0.8852338840        8.4130331891       16.1499254617
  C        -1.9479585378        9.1072511388       16.8088162264
  C        -2.9946542406        9.7198481955       16.0522134282
  C         0.3379084848        8.1470955923       18.3720277386
  C         1.0872055621        9.3232077098       18.7436350688
  C         1.1321241036        9.8434639173       20.0436023202
  C         0.3411197264        9.2755098323       21.0354352912
  C        -0.3737493851        8.0774591928       20.7244235528
  C        -0.3634133579        7.5492030221       19.4477648488
  H        -1.8755474666        9.2719491692       17.8573932091
  H        -3.7147792305       10.3731838841       16.5627920429
  H         1.6351134888        9.8309264770       17.9076067009
  H         1.7134468528       10.7626551505       20.2607800501
  H         0.3184340194        9.6902083446       22.0494623174
  H        -0.9592531572        7.5441754746       21.4227204054
  H        -0.9456652207        6.5724347698       19.3040500512
  C         1.4000313702        7.1985282521       14.7078368632
  C         2.4533424879        6.4648532990       14.0252612082
  C         3.5601753429        5.9684720665       14.6689215362
  C         3.4579405415        5.9549826729       16.1360521812
  C         2.3843256375        6.5164887922       16.8514175662
  C        -0.8381371382        8.3858501728       14.7072833435
  C         0.2892621856        7.8262974282       14.0064882355
  C         0.4457487400        8.0936048317       12.4957614573
  C         1.3491992028        9.0815721422       12.0686431243
  C         1.3307066276        9.5902535401       10.7556106569
  C         0.4153066629        9.0247952754        9.8289713989
  C        -0.1601201357        7.7825445925       10.1802266538
  C        -0.3278880843        7.4318487292       11.5329731945
  H        -0.7741152359        6.4777804600       11.8943515553
  H        -0.7545768846        7.2655343490        9.4332352659
  H         0.4406452152        9.2693807584        8.7261374787
  H         2.1110355800       10.2691274641       10.3686068035
  H         2.0315226844        9.5212884440       12.8234494655
  C        -1.9622886383        8.9269426512       13.9915886772
  C        -3.0269440506        9.5349827792       14.6223505047
  H        -3.7767260183       10.0476286636       14.0283173180
  H        -2.0114378255        8.7999185417       12.8612908178
  C         2.2735839728        6.1149737114       18.2942285843
  C         1.6640323450        4.9276337906       18.5675990485
  C         1.8538231271        4.2591448963       19.8198206351
  C         2.7340290644        4.8127115649       20.8191717857
  C         3.2722274659        6.0773405192       20.5698730607
  C         3.0215662644        6.6816361852       19.3388298793
  H         3.4373045294        7.7358421734       19.1977573734
  H         3.8876512869        6.6204138476       21.3022622790
  H         2.9005808082        4.3124014194       21.7731615242
  H         1.4035482561        3.2854983585       19.9425011231
  H         1.1127597789        4.4424939724       17.7992366427
  C         4.4153523907        5.1097584295       16.8562693052
  C         5.3925500422        4.4089092491       16.2272596652
  C         5.4234475549        4.3580378065       14.8090943074
  C         4.5593858223        5.1207792299       14.0806619926
  H         4.6051855871        4.9441986310       13.0547661832
  H         6.2507487871        3.8149279286       14.3260357568
  H         6.1855750545        3.8653871836       16.7631387980
  H         4.4088647512        5.0420618197       17.9034805263
  C         2.3772792674        6.0996546805       12.5953805038
  C         1.6511100049        5.0243842232       12.1030925611
  C         1.7672384359        4.4372040021       10.8054243372
  C         2.5704210274        5.0615848824        9.8755928751
  C         3.2526031723        6.2502400893       10.3414657024
  C         3.2082467358        6.6820306789       11.6418745890
  H         3.9120391128        7.4986349705       12.0185029566
  H         3.7932377406        6.8661719335        9.6567072474
  H         2.6699056135        4.7997483297        8.8260131689
  H         1.2242442200        3.5013166270       10.7365859340
  H         0.9655197858        4.5525615130       12.8537269047
