140

  C         2.8580977061        0.3159750741       14.6203809926
  C         3.8196252587        1.0858960763       15.3386327841
  C         4.9192755848        1.6288487222       14.6873000462
  C         5.7864269159        2.5188234607       15.4027116989
  C         6.6929853286        3.2929935176       14.7659433574
  C         3.7483302816        1.3881920573       16.8059117207
  C         2.9865769519        2.4682253930       17.2006784757
  C         3.0534053704        2.9917627882       18.5283783478
  C         3.9754234774        2.3880620823       19.3663629028
  C         4.6896700136        1.2101075047       18.9903818122
  C         4.6066168783        0.7271165472       17.6824626825
  H         5.6628137120        2.6920427264       16.4519327730
  H         7.2091560111        4.0885633498       15.2192984459
  H         2.3157285320        2.9648898202       16.5089536456
  H         2.4089766252        3.8342626730       18.7498489253
  H         4.1870157504        2.6804084359       20.3557179434
  H         5.3419360161        0.9269457053       19.8247771756
  H         5.2092313209       -0.0773504244       17.2915614169
  C         2.8698374807        0.3627243310       13.1101313658
  C         1.9494465819       -0.4933621788       12.4113471536
  C         0.9531538151       -1.1634303367       13.1078004475
  C         0.8913478047       -1.1545348763       14.5432202223
  C         1.8710943847       -0.4530365750       15.3675054674
  C         4.9468750066        1.7187031236       13.2274410433
  C         3.9477970372        1.0638905366       12.4909333908
  C         3.7638523242        1.4042279521       11.0674266325
  C         2.7977229869        2.3318763570       10.6728673373
  C         2.5560635921        2.6295478100        9.3366303567
  C         3.2959027550        2.0003073176        8.3234632331
  C         4.3436643135        1.1461645455        8.7214223631
  C         4.5606489809        0.7970684842       10.0677412439
  H         5.3107767354        0.0652514329       10.3253950371
  H         5.0717955070        0.6579322241        7.9981207345
  H         3.1227472314        2.1771381024        7.2228246572
  H         1.7929559711        3.3411654457        9.1492066046
  H         2.1218391683        2.8364945149       11.3677482728
  C         6.0319556451        2.5669764438       12.5849559978
  C         6.8944504566        3.2804722985       13.3546678319
  H         7.6459214465        3.8941296065       12.8871196928
  H         6.0928413961        2.6883120345       11.4785394757
  C         1.8384781053       -0.6800495708       16.8722795958
  C         2.5874671085       -1.6666470648       17.4629549702
  C         2.4471333872       -2.0909130274       18.7458165704
  C         1.4930525279       -1.4739186537       19.5360233699
  C         0.6589403999       -0.5244940501       18.9788220288
  C         0.8665049940       -0.1097853358       17.6977982585
  H         0.0234734920        0.4456902078       17.3281891861
  H        -0.1267494934       -0.2321561504       19.6328060030
  H         1.2921244830       -1.8261543860       20.5579724973
  H         3.0036156179       -2.9850320976       19.1195900238
  H         3.2968034472       -2.2501975620       16.7838413258
  C        -0.3433966881       -1.7237910974       15.1623574913
  C        -1.2910948523       -2.3484922859       14.4196408900
  C        -1.1861051256       -2.3683486736       13.0293222510
  C        -0.0667632311       -1.9257210050       12.4260065182
  H         0.1809208631       -2.0907990705       11.3711925166
  H        -1.8938551300       -3.0075708376       12.4498565642
  H        -2.1110218386       -2.9269830187       14.8948141130
  H        -0.4683585274       -1.7974589698       16.2695648520
  C         2.0055527618       -0.7638123027       10.9270670750
  C         2.9671328231       -1.7576227032       10.5606731058
  C         2.8995043126       -2.2243031109        9.2628401117
  C         1.9839664671       -1.7176114566        8.3341218398
  C         1.0493400000       -0.7276746260        8.6899558009
  C         0.9834871858       -0.3591958623       10.0130386419
  H         0.1833750837        0.3332010864       10.3911486651
  H         0.3329209750       -0.2512077753        7.9743520947
  H         2.0432095429       -2.1671253517        7.3554590164
  H         3.6370512941       -2.9424893852        8.9687767082
  H         3.6587127823       -2.1405115745       11.3249582717
  C        -0.9840586377        7.6470690420       14.6920385425
  C        -1.9695263817        8.3558212828       15.3734867623
  C        -3.1571557219        8.6828279072       14.6578653446
  C        -4.1824302412        9.3974265032       15.3735665820
  C        -5.2344096877        9.9475084349       14.6953171876
  C        -1.8961092625        8.6936081404       16.8208260036
  C        -0.9690914852        9.6731915460       17.2558492135
  C        -0.9820546076       10.0119231049       18.6175889290
  C        -1.7907236140        9.3967951838       19.5715984148
  C        -2.6879214015        8.4609619290       19.1295640951
  C        -2.7373218461        8.1116110253       17.7484657126
  H        -4.2055725697        9.4006733305       16.4689421229
  H        -6.0256708999       10.4317028756       15.2542941760
  H        -0.3430895187       10.1044405984       16.4936365181
  H        -0.3547056797       10.8674778151       18.8889371469
  H        -1.7211779819        9.5438576003       20.6565642131
  H        -3.4197972916        7.9469045737       19.7216659498
  H        -3.5081993833        7.3823962495       17.4271388180
  C        -0.9906745457        7.6642507814       13.2436801294
  C         0.0701746051        6.9122908133       12.5360567196
  C         1.1125896966        6.3171304922       13.2830575889
  C         1.1067911664        6.3556846825       14.7068534580
  C        -0.0248053304        6.8818863820       15.3530247880
  C        -3.1951083311        8.7032489767       13.2091239820
  C        -2.0900611098        8.1955612952       12.5038513239
  C        -2.1082868765        8.4084977398       11.0028438187
  C        -1.2029130172        9.3560744261       10.5211810174
  C        -1.1784038508        9.8274167420        9.1955763036
  C        -2.2059125696        9.3828317772        8.3773721243
  C        -3.0243626105        8.3424027668        8.7646696792
  C        -3.0970499535        7.9488533412       10.1084970025
  H        -3.8719832117        7.2125516869       10.2659416654
  H        -3.7471883201        7.9844745639        8.0529200069
  H        -2.2234238280        9.7557145791        7.3684423903
  H        -0.4200402715       10.5330254930        8.8561524158
  H        -0.3418918425        9.6636717248       11.1661581004
  C        -4.3866351229        9.2442815409       12.5489680485
  C        -5.3403021198        9.8886764032       13.2959675837
  H        -6.2288925387       10.3557368704       12.8854578545
  H        -4.5018736984        9.1727464776       11.4394442980
  C        -0.0661237891        6.5075391303       16.7828427265
  C        -0.9432899365        5.4639540827       17.2519971181
  C        -0.7051405104        4.9193747312       18.5351337618
  C         0.3619285752        5.2819591762       19.3287989621
  C         1.1822434300        6.3187035606       18.9431446593
  C         0.9016819935        6.9055890783       17.7218904958
  H         1.4359806289        7.8040244415       17.3564028302
  H         2.1122167615        6.5670941494       19.5145734191
  H         0.5059727811        4.6844158915       20.2406905490
  H        -1.3732526720        4.1571170784       18.9232889289
  H        -1.6723556488        5.0063935283       16.6100915809
  C         2.1792738700        5.6976776124       15.4301857981
  C         3.2791390373        5.2314716344       14.7140695643
  C         3.2568492380        5.1304687205       13.3275533152
  C         2.2120464879        5.6764872706       12.6413622539
  H         2.2459333462        5.5426399308       11.6006575466
  H         4.0352731260        4.5755516962       12.8555482577
  H         3.9780587187        4.6131930518       15.2379874109
  H         2.1073865765        5.4642459379       16.4849217563
  C         0.0967992224        6.5463660264       11.0920615399
  C        -0.7625125745        5.5200113343       10.6175248674
  C        -0.7182572564        5.1622753092        9.3038359716
  C         0.2386174582        5.7077568035        8.4399612483
  C         0.9510979007        6.8433987875        8.8555667499
  C         0.9293503024        7.2245439558       10.1906892693
  H         1.4432220310        8.0727467652       10.5375563228
  H         1.5417739546        7.4608910497        8.1710456169
  H         0.2907649727        5.4542596713        7.3855395172
  H        -1.2721562891        4.3342177164        8.9030170371
  H        -1.5637905608        5.1040336156       11.2136300965
