140

  C         2.2808393288        0.7086627123       14.7218447482
  C         3.3366538991        1.3754437731       15.4132314259
  C         4.5030449331        1.8504994619       14.7105926996
  C         5.6401297947        2.5199474525       15.2903035231
  C         6.5851667695        3.1449958178       14.5178437545
  C         3.1360499488        1.7701278442       16.8908595703
  C         2.4878916039        2.9686926095       17.1464079338
  C         2.5793156751        3.5826178955       18.4003036804
  C         3.3183509713        2.9791903421       19.3766817884
  C         4.0362025465        1.7805790305       19.1751225121
  C         4.0223571447        1.2495477414       17.8588962882
  H         5.7125389993        2.7248003981       16.3643146869
  H         7.3771306959        3.6747151859       14.9998045781
  H         1.9166879613        3.5588686068       16.4478219503
  H         2.0392957062        4.5211517440       18.6047526949
  H         3.3182921489        3.4020593242       20.3874901643
  H         4.5654314070        1.3948384341       20.0446433450
  H         4.6515469144        0.4184897854       17.5072205464
  C         2.3178834551        0.6273959336       13.2590528770
  C         1.2862461171       -0.1357363951       12.5067141561
  C         0.1714165725       -0.5607478560       13.2521659598
  C         0.0849709444       -0.4402707204       14.7190219044
  C         1.2225030841        0.0827279504       15.4048362594
  C         4.4565981976        1.7940319499       13.2924280198
  C         3.3784605565        1.2798705729       12.5569103556
  C         3.2302513430        1.6762605514       11.0894121512
  C         2.4493572274        2.8235219781       10.8324708676
  C         2.3193907762        3.3415051991        9.5257405499
  C         3.0859435519        2.7546071608        8.4942771798
  C         3.9670762304        1.6998698027        8.7103518847
  C         3.9578294987        1.1066618644       10.0034812186
  H         4.6281930929        0.3008318441       10.3003034979
  H         4.6257486548        1.2908935175        7.8746928716
  H         2.9952946764        3.2288928659        7.5223653667
  H         1.7751154937        4.2696827011        9.3454864763
  H         1.9092142558        3.2883766971       11.6970211025
  C         5.5218867397        2.4132916852       12.4807304426
  C         6.5287824973        3.0464936815       13.0926669846
  H         7.3116024643        3.5891955309       12.6102510941
  H         5.4402750584        2.3355085719       11.4247828127
  C         1.1473802316       -0.0450630930       16.9041116371
  C         1.7769248219       -1.1977931795       17.4454015073
  C         1.6572085230       -1.4480800031       18.8124908095
  C         1.0638449286       -0.5749021753       19.7169964321
  C         0.4164700830        0.5946725876       19.1808525445
  C         0.4495481304        0.8041186429       17.7790934978
  H        -0.0554812168        1.6562526386       17.3695234023
  H        -0.1298992673        1.2021520356       19.8454555868
  H         1.0933551625       -0.9064110905       20.7829027929
  H         2.0896300337       -2.4546013279       19.0918840301
  H         2.2569688564       -1.9348064620       16.8191229603
  C        -0.9894143262       -0.9910957118       15.4228033882
  C        -1.9957920037       -1.7067615480       14.8056685962
  C        -1.9013796434       -1.9197453727       13.4051503990
  C        -0.9651289762       -1.2992971133       12.6488587500
  H        -1.1080347820       -1.4526063261       11.5609800892
  H        -2.6965155323       -2.4992959549       13.0075756869
  H        -2.6941031119       -2.3518727872       15.3546468184
  H        -1.1350981236       -0.8399798346       16.4852167245
  C         1.2677793662       -0.3976991992       11.0539567612
  C         2.1514688041       -1.4386249178       10.7018483060
  C         2.0393771972       -2.0265402662        9.4855713723
  C         1.1452581063       -1.5394980300        8.4632838571
  C         0.2910822021       -0.4953369040        8.7927451370
  C         0.3501808852        0.0503759329       10.1161769784
  H        -0.3001233519        0.8920459300       10.3148081062
  H        -0.4265461824       -0.0992345444        8.0892908122
  H         1.0664504488       -2.1296726499        7.5988314591
  H         2.6765276212       -2.8303770095        9.2334134906
  H         2.9280198340       -1.8560303206       11.3693067402
  C        -1.3749284508        7.7536833460       14.7935446906
  C        -2.4527217207        8.3791902056       15.5660713615
  C        -3.5258266729        8.9221121113       14.8645885599
  C        -4.5854727994        9.6161833248       15.5575946302
  C        -5.7242081742       10.0750252882       14.9201452781
  C        -2.4991430892        8.6920144312       17.0326790980
  C        -1.7504597491        9.8167872095       17.4515298258
  C        -1.8621102658       10.2685012609       18.7504346819
  C        -2.7191142607        9.6842848438       19.6995534984
  C        -3.5016290380        8.5352481432       19.2254873463
  C        -3.3450539583        8.0987048940       17.9355372038
  H        -4.5956652848        9.7810090192       16.6168454711
  H        -6.4915849455       10.5936278194       15.5008425754
  H        -1.1782084530       10.4840307137       16.7622653782
  H        -1.3534437763       11.1642299934       19.1608667897
  H        -2.7746740306       10.0797866780       20.7500163637
  H        -4.2028047425        8.1282544285       19.9260452523
  H        -3.8119519143        7.2105641497       17.5747293058
  C        -1.3910144386        7.7486027808       13.3237940520
  C        -0.3647345208        7.0718072505       12.6438063647
  C         0.7439176923        6.5119181137       13.3153742780
  C         0.8694472548        6.7098263083       14.7319844078
  C        -0.2273533177        7.1893142011       15.4584182390
  C        -3.4903688309        9.0294513102       13.4500534753
  C        -2.4946222274        8.4293517467       12.6627114817
  C        -2.5097915728        8.7396646552       11.1664820008
  C        -1.5926686005        9.6449804119       10.6274522043
  C        -1.6503543550       10.0166478696        9.2679666780
  C        -2.5932385401        9.3918756553        8.4394353805
  C        -3.5421499752        8.5246650465        9.0300340621
  C        -3.4776819206        8.1626108337       10.3681455129
  H        -4.1957086037        7.4624421649       10.8305711732
  H        -4.3156307345        8.0264364003        8.4924884221
  H        -2.6778780324        9.5626676993        7.3347769960
  H        -0.8932951856       10.7772633571        8.9580826147
  H        -0.8398128465       10.1165217076       11.2511093697
  C        -4.6412485041        9.7601027717       12.8349368761
  C        -5.7015038520       10.2565663593       13.5065410757
  H        -6.5173839963       10.5940350091       12.9142284517
  H        -4.6780432486        9.8389380674       11.7628466186
  C        -0.2220986380        6.9535647187       16.8740797304
  C        -0.7683245440        5.7604407009       17.4083464683
  C        -0.8008876632        5.5176118325       18.7584304294
  C        -0.1570516289        6.3424400919       19.6922839568
  C         0.4526505362        7.5259869680       19.1902188016
  C         0.3190335562        7.8692437040       17.8357247394
  H         0.7318248044        8.7238383111       17.3806955479
  H         1.0165048573        8.1832156993       19.8437890327
  H         0.0062112437        6.1427662154       20.7085588238
  H        -1.2819723231        4.5659112999       19.0817735506
  H        -1.3465480807        5.1309852828       16.6889285460
  C         2.0425032501        6.1826729907       15.3921657666
  C         3.0127175766        5.5235438945       14.6692299555
  C         2.8910613887        5.2820272776       13.2908425629
  C         1.7803998510        5.7968633731       12.6541211675
  H         1.6889591895        5.5790022146       11.6309444918
  H         3.6668736651        4.7454727208       12.7412793916
  H         3.7611136918        5.0657185475       15.2553730165
  H         2.1756480614        6.2166878905       16.4688222996
  C        -0.4270499993        6.6824131063       11.2479635036
  C        -1.2309533754        5.5699934044       10.8627089400
  C        -1.3952795451        5.2683720231        9.5136992545
  C        -0.5892808401        5.7543156394        8.5498427636
  C         0.2663472667        6.8138669824        8.9690264470
  C         0.3870756329        7.2437259359       10.2651358572
  H         0.9290689621        8.1184734375       10.4896683534
  H         0.9004548574        7.3230321337        8.2970250754
  H        -0.7540971310        5.3988157101        7.4899791757
  H        -2.1970673251        4.5692485559        9.2078692501
  H        -1.8144356961        5.1464600182       11.6942152761
