140

  C         3.8464484330        0.2231330860       14.8981785919
  C         4.9415726886        0.8666536904       15.4572165992
  C         6.0206407505        1.2692049612       14.6507502121
  C         7.2633061209        1.5954470409       15.1957793762
  C         8.2764627214        2.1847584699       14.4382521128
  C         4.9533589796        1.2133913853       16.9345174752
  C         4.0505462367        2.2542733351       17.3125963768
  C         4.1239597021        2.8016066001       18.6040015090
  C         4.9928213864        2.2973457137       19.5821133457
  C         5.8786164587        1.2218448170       19.2189316206
  C         5.8054124363        0.6920488683       17.9233876264
  H         7.5586262418        1.5341840488       16.2355796972
  H         9.1840090133        2.3405702048       14.9986697478
  H         3.2748248903        2.6153760794       16.6486241445
  H         3.4482947451        3.5711481126       18.8796249248
  H         5.1235300560        2.7360474746       20.5791834441
  H         6.5160931594        0.7941036304       20.0175798109
  H         6.4422779328       -0.1921072606       17.7007334923
  C         3.7837286332        0.2843052458       13.4370810996
  C         2.7453300900       -0.4362142930       12.7724894068
  C         1.6455610656       -0.9147783831       13.5145224279
  C         1.6043556455       -0.8193006189       14.9557704885
  C         2.8236913910       -0.4047445635       15.6102055922
  C         5.8481852651        1.5620246234       13.2472105492
  C         4.6807455310        1.0404010472       12.6121976857
  C         4.5574646222        1.3324675198       11.1835397110
  C         3.7754602931        2.4235251071       10.7557768176
  C         3.6060201295        2.9155402416        9.4887668558
  C         4.4280079576        2.3556176345        8.4034164803
  C         5.2708819324        1.3123555168        8.8018537261
  C         5.3785337650        0.8569801837       10.1387381428
  H         6.1216711549        0.0465330856       10.3175449492
  H         5.9788823146        0.8595552988        8.0715615292
  H         4.3175542855        2.7432372371        7.4166471132
  H         2.7657399084        3.6267758867        9.3384213193
  H         3.1255394773        2.8415441970       11.5353822493
  C         6.8558324588        2.2671267525       12.5277550796
  C         8.0641892723        2.5981194062       13.1422940717
  H         8.7557612511        3.1712846237       12.4936597480
  H         6.6808579849        2.4912127009       11.4932429142
  C         2.9289677246       -0.7638291489       17.0033078409
  C         3.8534605811       -1.6973514418       17.4589208314
  C         3.9696676794       -2.0496871816       18.8167829140
  C         3.1327045498       -1.5032504986       19.7980464449
  C         2.1767043907       -0.5542960942       19.3799311935
  C         2.0909483118       -0.1863056897       18.0273718992
  H         1.3941219957        0.6370542496       17.7983836727
  H         1.5117725851       -0.0776744697       20.1699597162
  H         3.2841397496       -1.8255265853       20.8025305916
  H         4.5613617724       -2.9276706518       19.1397343529
  H         4.4435681639       -2.1545527584       16.7209087997
  C         0.6412054141       -1.5655703009       15.6772103617
  C        -0.3998019638       -2.1787015198       15.0499918003
  C        -0.4590728969       -2.1750009327       13.6240169136
  C         0.5021090317       -1.5713933736       12.8908889658
  H         0.5011672551       -1.5687647696       11.8018197921
  H        -1.3241552669       -2.6720253176       13.1943616446
  H        -1.2234361857       -2.5939990868       15.5832001975
  H         0.7055702172       -1.4885932239       16.6957041171
  C         2.7377361957       -0.8413645748       11.3512720454
  C         3.4973906363       -1.9474672717       10.9722001268
  C         3.4879965371       -2.4575544896        9.7273785355
  C         2.6972672738       -1.8502143192        8.6993102484
  C         1.9270542429       -0.7332568100        9.0527724060
  C         1.9343434837       -0.2743609286       10.4036443205
  H         1.3155818435        0.5999361628       10.6839258006
  H         1.3165259667       -0.1663775065        8.3138281338
  H         2.7128207519       -2.2576349305        7.6744048433
  H         4.0905031247       -3.3730230472        9.4326265690
  H         4.2031785698       -2.4237668119       11.6643290623
  C         0.3026246056        7.5751618855       15.1263124455
  C        -0.6898143406        8.2335141205       15.8814799073
  C        -1.7592143091        8.8101148298       15.1423534294
  C        -2.8097457086        9.4425526791       15.8541481749
  C        -3.8991775213        9.9429349232       15.1340255326
  C        -0.6221644820        8.4825509384       17.3427864189
  C        -0.0253606268        9.6575856241       17.8623356963
  C         0.0664669546        9.8726003956       19.2853984886
  C        -0.7185748800        9.0403592788       20.1280483862
  C        -1.5531748783        8.1218340681       19.5585036530
  C        -1.4558721857        7.7824676025       18.2390403094
  H        -2.8277086752        9.4883707931       16.9511578510
  H        -4.6829994591       10.3800384533       15.7376240133
  H         0.5293556503       10.3204403025       17.1804105866
  H         0.6065319849       10.6991244893       19.7580885011
  H        -0.7651604859        9.2173132844       21.2122606120
  H        -2.2698471078        7.6439692169       20.2019849822
  H        -2.0378032293        6.9970186289       17.8030205770
  C         0.2729364974        7.6332959939       13.6599256147
  C         1.2061365505        6.9234647230       12.8633281887
  C         2.3985838470        6.3452189952       13.4560929894
  C         2.4505983638        6.3320340875       14.9284213271
  C         1.3556774373        6.8609336428       15.7286520947
  C        -1.8193669723        8.8906593918       13.6868899992
  C        -0.7348144572        8.3836306751       13.0191154529
  C        -0.7051439944        8.6534908917       11.5302313684
  C         0.0174913850        9.7226215034       10.9336089806
  C        -0.0708786874        9.9869041308        9.5709317611
  C        -1.0502487373        9.2157475587        8.7861239432
  C        -1.6922307502        8.1388380861        9.3745968910
  C        -1.6050375495        7.9191971181       10.7687804852
  H        -2.1094557152        7.1178858217       11.2135495727
  H        -2.3563007528        7.4498091388        8.7835325130
  H        -1.1845198772        9.4264351028        7.7175144842
  H         0.3942653657       10.8353213387        9.1154581960
  H         0.6256261668       10.3372068726       11.6030859696
  C        -2.9956393261        9.4380870183       12.9864248923
  C        -4.0025437082        9.9769386257       13.7349257354
  H        -4.9568387294       10.1838187219       13.2152275141
  H        -3.0097704446        9.3011930532       11.8904257093
  C         1.3232317918        6.4244803140       17.1707896325
  C         0.3332582255        5.4895636451       17.5860687894
  C         0.2753866811        5.0954743502       18.9585255730
  C         1.2258472714        5.5734926271       19.8540206966
  C         2.2234749297        6.4757616811       19.4492518173
  C         2.2477676814        6.9547539400       18.0950938719
  H         2.9290616374        7.7985196431       17.9265410723
  H         2.9707883601        6.8733087030       20.1405221454
  H         1.1804692726        5.1879104114       20.8867984680
  H        -0.4746359735        4.4116067447       19.3238430939
  H        -0.4418725077        5.1682748589       16.8987545775
  C         3.4806380066        5.5960516910       15.5889654000
  C         4.5100125143        4.9791074697       14.8639346683
  C         4.4264539603        4.9518923291       13.4718315311
  C         3.4045312770        5.5660341175       12.7645102824
  H         3.3372539613        5.3435492512       11.6959086388
  H         5.1689079663        4.4633777317       12.8599692247
  H         5.1986411672        4.2312820734       15.3269927682
  H         3.3407622289        5.5441344518       16.6615749627
  C         1.0108086894        6.5322959963       11.4483206718
  C         0.0901071915        5.5356405197       11.0234209669
  C         0.1553234325        5.0154676153        9.7209859343
  C         1.0207563520        5.5678873411        8.7936330128
  C         1.8385347586        6.6223965955        9.1929909034
  C         1.8383967964        7.1095541457       10.4528921185
  H         2.4380774288        8.0302112231       10.6611338053
  H         2.3967816194        7.1285923058        8.4370839334
  H         1.0887572098        5.1602095392        7.8050913796
  H        -0.5967456164        4.2278395357        9.4249897917
  H        -0.5764675899        5.1222164877       11.7470797846
