140

  C         5.1949726086        0.0741050505       16.3403362886
  C         6.2715174194        0.6999195985       16.9518276914
  C         7.4170238175        1.1374506721       16.2901437421
  C         8.4961677604        1.7738168256       16.9819696418
  C         9.5027687915        2.3699986661       16.2664013162
  C         6.2287982826        1.1055525818       18.4450072934
  C         5.5140577940        2.1635667478       18.9869605473
  C         5.7431209161        2.7378255158       20.3063606930
  C         6.6605305980        2.1429276424       21.0967492544
  C         7.3007726442        0.9794872982       20.5854836461
  C         7.1053349658        0.4106054978       19.3370836087
  H         8.4606192589        1.9061171027       18.0970725205
  H        10.1169428149        3.1374633304       16.7610108764
  H         4.8020395546        2.6238967722       18.3350055333
  H         5.1312235546        3.5635508696       20.6015375537
  H         6.7744613432        2.4769230225       22.1159257709
  H         8.0159167970        0.4608592247       21.2467148966
  H         7.6735762637       -0.5405316459       19.1225292371
  C         5.1312560542       -0.0620797327       14.8779294828
  C         4.0547454370       -0.7123324285       14.2662429357
  C         3.0101727244       -1.2172270864       15.0690532584
  C         3.1471737732       -1.2115722929       16.5052382710
  C         4.2465679844       -0.6033292660       17.1023073261
  C         7.4302730004        0.9704677230       14.8301030203
  C         6.3033837486        0.4407450160       14.1819407917
  C         6.2423901046        0.6255761473       12.7175759227
  C         5.4822574322        1.7006634898       12.2530338091
  C         5.4802596039        1.9839434966       10.8874384204
  C         6.2077784043        1.2896270086        9.9365850723
  C         7.0305991304        0.2494934696       10.4248572052
  C         7.0679117283       -0.1294368943       11.7971499092
  H         7.6734522943       -0.9056521904       12.1573168613
  H         7.6537293802       -0.2756550084        9.6856994692
  H         6.0979548547        1.4702776749        8.8406688417
  H         4.9266302483        2.8401597996       10.5931904208
  H         4.9246999531        2.3378757329       12.9667878366
  C         8.5906908357        1.5063486438       14.1914876497
  C         9.5383224577        2.2307138553       14.8651490812
  H        10.3069608357        2.7497567395       14.2704207825
  H         8.6344896724        1.4513634457       13.0945637651
  C         4.3829527838       -0.9193902573       18.5387007121
  C         5.2374329906       -2.0164212586       18.7837254496
  C         5.2900985833       -2.6412991465       19.9847801987
  C         4.5636715327       -2.0044000539       21.0738772395
  C         3.6705011065       -0.9592378304       20.8739639455
  C         3.6502754098       -0.3262807966       19.5848355254
  H         3.0434271837        0.5188610626       19.3589959885
  H         3.1047526684       -0.5660216607       21.6753158636
  H         4.7783502591       -2.3718074478       22.0883786528
  H         5.9695399128       -3.4488545025       20.1640147120
  H         5.7706968345       -2.4061314110       17.9343964680
  C         2.2114449206       -2.0683415392       17.2837175172
  C         1.1887843198       -2.7217693848       16.6863504333
  C         1.1236635271       -2.7873226607       15.3011727060
  C         1.9607254769       -2.0229999712       14.5054781731
  H         1.7368514894       -2.1551030248       13.4278989246
  H         0.3674171643       -3.3730201510       14.7573567021
  H         0.5633054993       -3.3542970512       17.3144596701
  H         2.4138384307       -2.0931130409       18.3385839933
  C         4.0714638112       -1.2432600026       12.7942705255
  C         4.6795942718       -2.4444792101       12.5386900328
  C         4.7401921734       -2.9658393352       11.2441614826
  C         4.0744813160       -2.3521623039       10.1941864726
  C         3.5455094333       -1.0930501960       10.4490362283
  C         3.4474570082       -0.5089271568       11.7176786705
  H         3.2365565299        0.5542545128       11.8173444519
  H         3.1708450082       -0.5409528182        9.5439088290
  H         4.2585537600       -2.6493834513        9.1646579974
  H         5.2129180057       -3.9539267316       11.0811954696
  H         5.1943462713       -2.9501038468       13.3635074216
  C         1.7479986633        6.9445176055       16.1936296201
  C         0.6557877902        7.5580705406       16.8785176851
  C        -0.3709535819        8.1445498326       16.1436098196
  C        -1.3947571548        8.8671766378       16.8548262590
  C        -2.2040423045        9.7583050449       16.2325497566
  C         0.7029436412        7.8113815208       18.3638023147
  C         1.4865023489        8.9249702371       18.7389010953
  C         1.5501682473        9.4093467855       20.0195774620
  C         0.7094000114        8.8562984517       21.0443481993
  C        -0.0941283996        7.8055907007       20.6313809968
  C        -0.1606548977        7.2731071040       19.3315475768
  H        -1.4596635819        8.7764063809       17.9637625653
  H        -2.9862958592       10.3346304410       16.6659514379
  H         2.0008210043        9.4654055137       17.9425532522
  H         2.1436496377       10.3000578258       20.2522179245
  H         0.7665011854        9.3154265503       21.9903472547
  H        -0.7891690360        7.3921819142       21.3003112817
  H        -0.8044788353        6.4447329011       19.0481793584
  C         1.7754516103        7.0023771274       14.7419388888
  C         2.7807254535        6.2806406404       13.9977694838
  C         3.8659620280        5.6117129704       14.6378460732
  C         3.9758053651        5.7012356389       16.0769334889
  C         2.7674315216        6.1600002790       16.8563281697
  C        -0.3190589332        8.2894672146       14.7065011610
  C         0.7813654463        7.7905505121       14.0066376918
  C         0.7711753806        8.1275112210       12.5532552614
  C         1.2989287038        9.3517433811       12.1577953950
  C         1.2208876494        9.6871908096       10.7892335883
  C         0.6454957483        8.8685419650        9.8408603100
  C         0.0491237252        7.6345158703       10.2540040528
  C         0.1793156624        7.2622581683       11.5742811091
  H        -0.3373827915        6.3759813136       11.8299607394
  H        -0.4011009778        6.9233442752        9.5353711718
  H         0.5816043366        9.2278255584        8.7772818545
  H         1.7156213352       10.6008238464       10.4914185555
  H         1.7203680009       10.0603760645       12.8719333103
  C        -1.3629165075        9.0187453774       14.0754915874
  C        -2.2316075625        9.8229812149       14.7735192025
  H        -2.9265053604       10.4908835720       14.2999259062
  H        -1.2889118281        9.1052352835       12.9667574171
  C         2.7533458017        5.8696900209       18.3282125634
  C         1.9880814276        4.7945817363       18.8763983329
  C         2.1642168543        4.4044958986       20.2408254569
  C         3.0558046002        5.1414602395       21.0183368983
  C         3.7487813896        6.2351813420       20.4801910154
  C         3.6729338390        6.5921218284       19.1133149761
  H         4.1112552163        7.4661580741       18.7236922349
  H         4.4932495004        6.8144463566       20.9712525267
  H         3.2704135097        4.8803329902       22.1140740841
  H         1.6905070298        3.5292402196       20.6541123913
  H         1.3471176731        4.1737713712       18.2193125996
  C         5.1988051358        5.2859542447       16.6933315567
  C         6.2228959246        4.6839115394       15.9771947392
  C         6.0534236021        4.4129227093       14.5402690982
  C         4.9306094745        4.8753262908       13.9153733983
  H         4.7051323629        4.7371109867       12.8585916456
  H         6.7957548292        3.7590985198       14.0181949288
  H         7.1848962477        4.3979048454       16.4397485759
  H         5.2709929986        5.3531858587       17.7408928074
  C         2.6480307261        6.0131952309       12.5072877792
  C         1.8408273937        4.8576209255       12.2025285312
  C         1.8798191829        4.3486859494       10.9114416228
  C         2.5466598601        5.0308368349        9.8774329786
  C         3.2245881501        6.1820570476       10.1528348172
  C         3.3477809433        6.6816930079       11.4461438341
  H         3.9636660607        7.5492988286       11.6001104613
  H         3.8241642795        6.6833125637        9.3983417790
  H         2.6308953625        4.5303024529        8.9080299685
  H         1.3404583255        3.4359011529       10.6468718227
  H         1.3107558457        4.3687739427       13.0480426006
