140

  C         3.7766383912       -0.2865991513       14.0942673562
  C         4.8332235433        0.4610442434       14.7801270721
  C         5.9793458327        0.9359560223       14.0593344669
  C         7.1079633462        1.5283037927       14.7439160823
  C         8.1576273492        1.9356264826       14.0242894035
  C         4.7336883545        0.8397506147       16.2752477215
  C         3.9122355458        1.9258933711       16.6529264584
  C         3.9305201924        2.3491245603       17.9613862505
  C         4.7920729717        1.7214345712       18.8512087939
  C         5.6919027919        0.6854529629       18.4927625128
  C         5.6261981992        0.1944280493       17.2077071993
  H         7.2403904257        1.7942156986       15.8026521266
  H         9.0403051631        2.3341117557       14.5343366766
  H         3.2541794357        2.4539348021       15.9629300890
  H         3.4013816678        3.2773957374       18.1302110938
  H         4.8615983040        2.1070285473       19.8617846405
  H         6.4023559411        0.1913181336       19.2465531539
  H         6.2789818987       -0.5318970750       16.7742639584
  C         3.7828534867       -0.2714551545       12.6315503596
  C         2.6670794832       -0.9126908648       11.9782504464
  C         1.6338779143       -1.5115775634       12.7695154030
  C         1.6054131754       -1.4201603017       14.2468166234
  C         2.7754849827       -0.9956161026       14.8922050543
  C         5.9633716918        0.9560364514       12.5856295302
  C         4.8327431959        0.4755634722       11.9314767518
  C         4.6235732814        0.8955862735       10.4719269012
  C         3.5989405059        1.8324234614       10.2938964173
  C         3.2053008869        2.3505886809        9.0364551547
  C         4.0927302108        2.0807480941        7.9922264975
  C         5.1636195667        1.1748255714        8.1053830254
  C         5.4045569897        0.5348154379        9.3225465708
  H         6.1266203639       -0.2438113904        9.4845491266
  H         5.6851866399        0.8289925256        7.2676292334
  H         3.8779476538        2.4437394567        7.0013892748
  H         2.3577765017        3.0090288924        9.0455311053
  H         2.9283843901        1.7888628085       11.1277454342
  C         7.0869036332        1.5148743741       11.8598863838
  C         8.2114682128        1.8828993643       12.5761756084
  H         9.1863959908        2.1652461294       12.2279035844
  H         7.0587817863        1.5614693760       10.7644302446
  C         3.0674554301       -1.3353518688       16.3010509741
  C         4.0816066560       -2.2316548047       16.4726199428
  C         4.2775550837       -3.0162604545       17.6107889151
  C         3.4878254353       -2.7224255466       18.7221263997
  C         2.5290262600       -1.7090456492       18.6577081632
  C         2.2297734907       -1.0726793944       17.4382251585
  H         1.3731170883       -0.4266380797       17.3533361725
  H         1.8671214133       -1.5370623026       19.5553734068
  H         3.5399049986       -3.1919886828       19.7130681171
  H         4.9215348838       -3.8958581676       17.5630326813
  H         4.7714088008       -2.5279833378       15.6712495603
  C         0.4586515388       -1.9391363668       14.9557502464
  C        -0.6152675406       -2.4630704984       14.3607207723
  C        -0.5711711875       -2.5866740505       12.9163501096
  C         0.4190590608       -2.1243178258       12.1030013025
  H         0.3593021931       -2.2512134570       11.0254291630
  H        -1.4412933823       -3.0923453863       12.4386487850
  H        -1.4920007659       -2.8109136909       14.8957320250
  H         0.4807814264       -1.9056629968       16.0606874942
  C         2.8089283815       -1.3226247901       10.5822714905
  C         3.8536099638       -2.2146891856       10.1515617663
  C         4.0180146929       -2.6897153112        8.8348139983
  C         3.1351161397       -2.2683650351        7.8398148947
  C         2.0781245332       -1.3985998463        8.2454629116
  C         1.8834189251       -0.9883017157        9.5687896239
  H         1.0284269477       -0.3712470174        9.7016174045
  H         1.4036447057       -1.0851688045        7.4661073303
  H         3.2593812348       -2.7367378538        6.8073375413
  H         4.8171263874       -3.3686489516        8.6931034952
  H         4.6241421984       -2.6280807877       10.8454604640
  C         0.4350698357        6.9544036088       14.1477786687
  C        -0.6190676407        7.6431167239       14.8584544890
  C        -1.7096308586        8.2116057384       14.1793846438
  C        -2.8504873237        8.9610860215       14.7858141917
  C        -3.8698218871        9.5370055624       14.0652210640
  C        -0.6138875996        7.9606736907       16.3053679912
  C         0.2653829009        8.9178355325       16.8110295952
  C         0.3641195956        9.2548656496       18.1785738472
  C        -0.4308491255        8.6312524616       19.1078752657
  C        -1.3872168189        7.6700865854       18.6550828035
  C        -1.4683205485        7.4070572891       17.2877961352
  H        -2.9202896155        9.0280812288       15.8640138917
  H        -4.6750157648       10.0629033679       14.5609763460
  H         0.9124726750        9.4977712100       16.1351272046
  H         1.2053973179        9.8872699424       18.4966970259
  H        -0.3124984466        8.7135007181       20.1727569385
  H        -1.9960555207        7.1192450201       19.3302359024
  H        -2.2120471307        6.6685443662       16.9536706954
  C         0.3852965340        6.9013752464       12.6899142656
  C         1.3299569542        6.0923086219       11.9565376180
  C         2.4405898503        5.6037432092       12.5934171531
  C         2.5172238359        5.7267903314       14.0655079527
  C         1.5372863079        6.3375624793       14.8237035211
  C        -1.7296886019        8.2029140781       12.7011311379
  C        -0.6547851353        7.6711311518       12.0175051234
  C        -0.5006617440        8.0942420164       10.5692832540
  C         0.4398569936        9.1104036899       10.3196711877
  C         0.6024488831        9.6538416473        9.0864483910
  C        -0.1270684099        9.1842788309        8.0118995529
  C        -1.0470894375        8.1055935792        8.2292354389
  C        -1.2654071859        7.5839345561        9.5162844996
  H        -1.8657105823        6.7008295955        9.6750357577
  H        -1.4637941355        7.5927281967        7.3342964322
  H         0.0194495321        9.5716003509        7.0213096008
  H         1.4062583871       10.4445482934        8.9603709299
  H         1.0082410806        9.4844148988       11.1003019024
  C        -2.7890938030        8.9254807450       11.9694806838
  C        -3.8226265791        9.5690453814       12.6610650455
  H        -4.5463658774       10.1314769458       12.0804405074
  H        -2.7344571290        8.8626649531       10.9166276010
  C         1.5898134349        6.0572400039       16.3281470343
  C         0.7632151660        5.0512864843       16.8537917820
  C         0.7550209888        4.6878659289       18.1714931576
  C         1.6523705713        5.3177787347       19.0196475706
  C         2.4753588816        6.3572885516       18.5711049435
  C         2.4785722325        6.7119253354       17.2393775131
  H         3.1708084840        7.5215363734       16.9268565719
  H         2.9216707292        6.9249991964       19.3630993900
  H         1.6653234895        5.1641961240       20.0940501716
  H         0.0988678725        3.9002123968       18.5510883544
  H         0.1243287840        4.4122504698       16.2607344618
  C         3.6262920291        4.9810814342       14.7222698284
  C         4.5220216586        4.2864459431       13.9650946101
  C         4.4727708142        4.2151235957       12.5515121840
  C         3.4215686151        4.8439393956       11.8924204886
  H         3.2669020403        4.6180909195       10.8379101666
  H         5.1956250116        3.6992837676       11.9549819002
  H         5.3732251227        3.6700075156       14.4042603904
  H         3.6089725345        5.0562292974       15.8117229912
  C         1.1090010759        5.7970531947       10.5545851144
  C         0.2206016778        4.7452913300       10.1140408692
  C         0.2661056514        4.2461788513        8.8146415013
  C         1.1035168976        4.8220008091        7.8505957782
  C         1.8511345004        5.9407179234        8.2205874806
  C         1.8751246827        6.4114856768        9.5548617973
  H         2.5326964347        7.2806282321        9.8062242014
  H         2.5288199319        6.3800197625        7.5427099437
  H         1.1555334554        4.4937889451        6.8168620957
  H        -0.3831295392        3.3979725420        8.6275637665
  H        -0.2868728025        4.1763792287       10.8648524307
