140

  C         5.4378902349       -0.3375660962       16.0514426033
  C         6.4983291385        0.3340035598       16.7474370411
  C         7.6012117357        0.9198782682       16.0545708061
  C         8.7050088804        1.4961792747       16.7359414229
  C         9.6858650505        2.2384188664       16.0735020420
  C         6.3823689467        0.6337079640       18.2326672239
  C         5.4005517290        1.5942802303       18.5919518275
  C         5.3344749498        2.1231358674       19.8688981895
  C         6.1644159971        1.6146048245       20.8727260579
  C         7.0153961270        0.5190593536       20.5615722738
  C         7.1378538360        0.0658105649       19.2519410819
  H         8.7483604389        1.3213341211       17.8166550766
  H        10.5692875318        2.6397510129       16.5830225354
  H         4.9372240930        2.1806814261       17.8462054659
  H         4.7618771453        3.0445587671       19.9910015326
  H         6.3020794355        1.9849246712       21.8803256312
  H         7.5090821214       -0.0690608383       21.2761480911
  H         7.8440601433       -0.6802195123       18.8859990676
  C         5.4576549163       -0.2642258628       14.5514731695
  C         4.4540735813       -0.9434692805       13.8520420916
  C         3.4454733231       -1.6298859491       14.5268047879
  C         3.3600884493       -1.5746153803       15.9844192455
  C         4.4001370643       -1.0879536647       16.7226173500
  C         7.5410069432        0.9624965378       14.6092639265
  C         6.4543295331        0.4780810612       13.8957864400
  C         6.2429601586        0.8151851767       12.4914814604
  C         5.3576462943        1.8134458167       12.1208829293
  C         5.3299375806        2.2649239368       10.7765022439
  C         6.3946635147        1.9332056360        9.9229895624
  C         7.2768500836        0.9443733742       10.3266874260
  C         7.2513069761        0.3623070972       11.5877744081
  H         7.7799043483       -0.5236392703       11.9599735759
  H         8.0421357532        0.6282967679        9.5926093677
  H         6.4400072711        2.4555568583        8.9848266812
  H         4.5582130176        2.9298896902       10.4032283988
  H         4.6125835525        2.1611833150       12.8398340427
  C         8.5656363869        1.6880201744       13.9916439902
  C         9.5963813746        2.2783320344       14.6466381506
  H        10.4460469564        2.6687630614       14.0764487114
  H         8.5401869568        1.6683227873       12.8888957138
  C         4.5809249647       -1.4264783332       18.1853182532
  C         5.2483752506       -2.6286821924       18.5268461889
  C         5.4309149883       -3.0570071791       19.8858089107
  C         4.7724430764       -2.3006993027       20.8382552294
  C         3.9323683623       -1.2024702358       20.4900839647
  C         3.7122728551       -0.8653505020       19.1465705545
  H         3.0234084463       -0.0677091440       18.9605738767
  H         3.2301738029       -0.7773924229       21.2326899659
  H         4.7885498534       -2.7027768395       21.8716328800
  H         5.9972750621       -3.9511825180       20.0712311876
  H         5.7388500349       -3.1564859850       17.6855280837
  C         2.1697084011       -2.2360893871       16.5498987499
  C         1.2599953861       -2.9688869997       15.8265636565
  C         1.5704919293       -3.1728191955       14.4405298180
  C         2.5766170508       -2.5070370277       13.8274091608
  H         2.8222513707       -2.7571526764       12.8143300798
  H         0.9848176006       -3.8180084462       13.8056219327
  H         0.3250451937       -3.3431604762       16.2148005664
  H         2.1346650106       -2.2131109369       17.6868041768
  C         4.6154318288       -1.2693187721       12.4126153034
  C         5.4390546567       -2.3612666253       12.0587063182
  C         5.3359596428       -2.9314096099       10.8040738557
  C         4.3754087017       -2.4950778564        9.8512993948
  C         3.6470804840       -1.3339964060       10.1514693295
  C         3.7650778952       -0.7722668848       11.4488617689
  H         2.9967984458        0.0090501646       11.5868692291
  H         3.0760759425       -0.9406245687        9.3559121224
  H         4.3333358870       -3.0208439831        8.8822586012
  H         5.9681606133       -3.7847267017       10.5222436233
  H         6.0832769895       -2.9184840866       12.7885257136
  C         1.8942621136        6.8468673616       16.0679971176
  C         0.9395475546        7.5728148240       16.8496914736
  C        -0.1289371445        8.1740328219       16.1531597848
  C        -1.2444148116        8.8358787954       16.8504174961
  C        -2.3045924306        9.4404338231       16.1836853339
  C         1.0666722861        7.9078834235       18.3640001243
  C         1.9193682790        8.9450193381       18.6853663585
  C         2.1385578533        9.3479418371       19.9982607922
  C         1.3769827007        8.7696378059       21.0484141330
  C         0.3692989796        7.8035260892       20.6940273217
  C         0.3081872535        7.3037638656       19.3450191597
  H        -1.1816595357        8.7888771836       17.9130672832
  H        -3.0912454011        9.9099360581       16.7985924019
  H         2.5111264366        9.3125024032       17.8562877535
  H         2.9961054152       10.0247807346       20.0942369096
  H         1.5550910807        8.9789585624       22.1043612568
  H        -0.3992188505        7.4176301726       21.4280062355
  H        -0.4419630553        6.4974138417       19.1469177999
  C         1.8835739692        6.8925377373       14.6555265982
  C         2.8585679367        6.1536170925       13.9595480936
  C         3.9526554886        5.5863694144       14.6299106875
  C         3.9541926058        5.5388503623       16.0671843463
  C         2.7815389190        5.9514429935       16.7628194164
  C        -0.2343464851        8.2008544206       14.7474534287
  C         0.8364568676        7.6164304016       13.9865023423
  C         0.8776031193        7.9099290985       12.5364005782
  C         1.8839623228        8.7587691112       12.1271400615
  C         2.0529193452        9.1397105699       10.7768090927
  C         1.1218303144        8.6088920942        9.7978401792
  C         0.2044661424        7.6078975672       10.2297248303
  C         0.0340751526        7.3016770614       11.6255407683
  H        -0.7650818572        6.5664304582       11.9797107433
  H        -0.3451865906        7.0677865640        9.5021267673
  H         1.3210191363        8.7528745232        8.7538565544
  H         2.8154587593        9.8257239555       10.5193630445
  H         2.6725780907        9.1271232860       12.7865992756
  C        -1.2426152608        8.9963951327       14.1077360947
  C        -2.2686744356        9.5895684376       14.7700602931
  H        -2.9712963688       10.2082499827       14.2297574899
  H        -1.2789273694        9.1450377334       13.0514744397
  C         2.6597423986        5.6605956240       18.2096063392
  C         1.6574511256        4.7733499953       18.5405045298
  C         1.5463515356        4.2432830629       19.8609939220
  C         2.3808935246        4.6647877213       20.8939955500
  C         3.3988182374        5.5572038257       20.5703173734
  C         3.5250504719        6.0873529510       19.3206860038
  H         4.3695440452        6.7414763721       19.0683804069
  H         3.8504264402        5.9994427126       21.4781199150
  H         2.3209473867        4.2343528133       21.9406890862
  H         0.6832604308        3.6263790819       20.0885200010
  H         1.0235122983        4.4210688505       17.7278302671
  C         5.0083819134        4.7864994960       16.6629055292
  C         5.9581448084        4.0683152875       15.9830388339
  C         5.9993499071        4.1736198876       14.5616897270
  C         5.0569391909        4.8818882958       13.9418391295
  H         5.0481323785        4.8483431204       12.8416159399
  H         6.7547936835        3.6798776176       13.9256786598
  H         6.5892701611        3.3641647897       16.4582642361
  H         5.0432455463        4.7887544996       17.7988887574
  C         2.7398780113        5.6929692202       12.4986188078
  C         1.8873966846        4.6391458157       12.0211694258
  C         1.8453801296        4.2382689348       10.6963959649
  C         2.7765712693        4.7968923398        9.7980246146
  C         3.6316392381        5.7743161655       10.2572657393
  C         3.6732327584        6.1879646013       11.5808948040
  H         4.4369135592        6.9303483888       11.8806288712
  H         4.3657880992        6.2999868584        9.6716845203
  H         2.7784899659        4.5439474977        8.7402425716
  H         1.0943507677        3.5046656067       10.4222180088
  H         1.1189718706        4.2198495808       12.6122812131
