140

  C        15.8102436549       -0.0068835981        2.7011419650
  C        16.8894679149        0.7488116874        3.3179461916
  C        17.9448583977        1.2772943533        2.5201082312
  C        19.0809193806        1.9867267252        3.0774659193
  C        20.0481627539        2.5386710202        2.2541250291
  C        16.8374660599        1.2382564186        4.7874141355
  C        16.1291236661        2.3680184119        5.2037399994
  C        16.0730832713        2.7012868164        6.6195670132
  C        16.7149420569        1.8739924750        7.5395454978
  C        17.5309630442        0.8486806707        7.0733457377
  C        17.5755686894        0.4601257380        5.7305222227
  H        19.2599880325        2.0817105520        4.1399502917
  H        20.8583462267        3.1050814873        2.6774610566
  H        15.4262892431        2.7923151481        4.4351775521
  H        15.4723404448        3.6173339215        6.9049359592
  H        16.6031947110        2.0866362226        8.5991705290
  H        18.1806033679        0.2836764605        7.7215080715
  H        18.1163840145       -0.3776952599        5.3033149035
  C        15.7328560807       -0.0133468642        1.2130922331
  C        14.6889816147       -0.5937537160        0.5529194289
  C        13.6685259335       -1.2307163536        1.3550984531
  C        13.8312045359       -1.3339986553        2.8468686210
  C        14.8666075319       -0.6690051212        3.5120673606
  C        17.8298714398        1.2906661563        1.1071375611
  C        16.6916120273        0.7451627653        0.4912286325
  C        16.6624304788        0.8551921543       -0.9937532540
  C        15.8725587406        1.9867788853       -1.5483168716
  C        15.9716658716        2.3525976630       -2.9376264502
  C        16.8271522162        1.7193766916       -3.8150165883
  C        17.5938160965        0.5962319511       -3.2707397878
  C        17.4891028201        0.2012629583       -1.9628868651
  H        18.0175787387       -0.6542366660       -1.5761088099
  H        18.2200906926       -0.0901263465       -3.9133663272
  H        16.8832521124        1.8632522459       -4.8968272185
  H        15.2978346988        3.1331899831       -3.2268531174
  H        15.1634165411        2.5904619694       -0.9655487573
  C        18.8946720341        1.7978687751        0.2658735509
  C        19.9948161748        2.4176034788        0.8597060739
  H        20.8229782076        2.8432735348        0.2822482894
  H        18.9016797018        1.7786062530       -0.8811835993
  C        14.7960638425       -0.8928850962        4.9579207385
  C        15.5014677053       -2.0174458872        5.5144454780
  C        15.3659583022       -2.3572181080        6.8580782710
  C        14.4958696087       -1.5756593226        7.6426531040
  C        13.7688106240       -0.5058804760        7.1735422510
  C        13.8733411786       -0.1666080107        5.7626540842
  H        13.3545142773        0.7734936381        5.3793681714
  H        13.1475688162        0.0243808803        7.7958536805
  H        14.3593573105       -1.9789023428        8.6651897353
  H        15.9275520651       -3.1620304958        7.3156819625
  H        16.2650444183       -2.5981360314        4.8656717698
  C        12.8618706102       -2.1108236249        3.5667920953
  C        11.8678395096       -2.7963134753        2.9101439576
  C        11.7321867021       -2.6243414080        1.5247584085
  C        12.5128597461       -1.7974514947        0.7979586480
  H        12.3862446217       -1.9079978176       -0.2959212242
  H        10.9986434856       -3.0991581648        0.9288537584
  H        11.2496642921       -3.5734141500        3.4284285171
  H        13.0387859701       -2.3395984899        4.6294906676
  C        14.6355858552       -0.8411441436       -0.9402205581
  C        15.3035515565       -1.9765683107       -1.3547192408
  C        15.1417526993       -2.5476230884       -2.6366657607
  C        14.3490433653       -1.8632195395       -3.5965960964
  C        13.7575220955       -0.6372093808       -3.2349896740
  C        13.9379288393       -0.1421431312       -1.9538293962
  H        13.3070338326        0.7316788006       -1.7136109949
  H        13.1343681851       -0.0953134527       -3.8961120776
  H        14.1776040857       -2.3575302116       -4.5719843870
  H        15.5867555180       -3.4748889961       -2.9349080099
  H        15.8647190815       -2.4992625585       -0.6021510541
  C        12.0639316839        7.0668065503        2.6826808413
  C        11.0453338293        7.7038505864        3.3397524374
  C        10.0133352616        8.3391386326        2.6450476426
  C         8.9954683361        9.0317900739        3.4142299532
  C         8.1142156644        9.8388175530        2.7728566619
  C        11.1479378763        8.0636855073        4.8016263683
  C        11.9350411778        9.1340860808        5.2425242762
  C        12.1294941453        9.3907651018        6.6268634600
  C        11.4041349857        8.7408811687        7.5933329371
  C        10.5527187672        7.6862174965        7.1628292448
  C        10.4545261915        7.3193276739        5.7795822051
  H         9.1529193613        8.9616292107        4.4414533948
  H         7.4582055811       10.4861242370        3.3439075082
  H        12.5604223083        9.7465438357        4.4781614494
  H        12.8436687053       10.1421020699        6.8146978316
  H        11.4147488983        8.9319885546        8.6485847800
  H         9.9741789568        7.1846619615        7.9407574083
  H         9.7871883000        6.4822297796        5.5816345166
  C        12.0046088982        7.0915351972        1.1394324344
  C        13.0193033307        6.4218947166        0.4341403635
  C        14.1680480474        5.9347532830        1.1011325125
  C        14.2162973167        6.0098316925        2.5498403676
  C        13.2055977761        6.5398817663        3.3507537578
  C         9.9792469875        8.3598395149        1.2454429981
  C        11.0572285320        7.8315215873        0.4477174441
  C        10.9995229964        8.2875113918       -1.0305841784
  C        11.8525907327        9.3839471327       -1.3368385425
  C        11.8241774867        9.8856052660       -2.6937087511
  C        11.0421891965        9.3187259740       -3.6954977145
  C        10.2156791436        8.1654499910       -3.3352900256
  C        10.1912593717        7.7298643369       -2.0327456347
  H         9.5825522001        6.8757085022       -1.7968902730
  H         9.4883224689        7.6914439942       -3.9478038215
  H        10.8599857966        9.8548414034       -4.6542348929
  H        12.3255951919       10.8182741539       -2.9044241832
  H        12.5090747276        9.9166582312       -0.5906585004
  C         8.9152804161        9.2324519873        0.6418836519
  C         8.0423692810        9.9669247418        1.3659163409
  H         7.4520290899       10.6923569065        0.8756440857
  H         9.0351811526        9.3558497350       -0.4544633325
  C        13.2431444779        6.2072123208        4.8272782515
  C        12.7040609658        4.9779393478        5.2743719180
  C        12.8731156762        4.5283710976        6.5478550632
  C        13.5390182693        5.2708722083        7.5036816803
  C        13.9994050154        6.5178086763        7.1876713243
  C        13.8444392712        6.9074315938        5.8658628111
  H        14.2075199107        7.8404740127        5.6060431338
  H        14.4637982372        7.1652962952        7.9262907234
  H        13.6646847582        4.8683543775        8.4926955673
  H        12.4650672521        3.5092421833        6.7056556064
  H        12.2826576375        4.3519773515        4.5155399316
  C        15.3845246766        5.2981763548        3.1617603136
  C        16.3902276616        4.7350832351        2.4348448142
  C        16.2429407737        4.5773001428        1.0151236007
  C        15.1641246130        5.1536621872        0.4120678371
  H        14.9682694035        4.8797394349       -0.6101125100
  H        16.9527735158        4.0009800309        0.4123399717
  H        17.1315855297        4.1771636967        2.9868639737
  H        15.5790514146        5.3987657855        4.2172495401
  C        12.7606806398        6.0006102705       -0.9667256447
  C        11.7676843303        5.0633748198       -1.3015497749
  C        11.6562111685        4.5078574296       -2.5809759507
  C        12.5254257668        5.0029214537       -3.5806635152
  C        13.5352703414        5.9496596948       -3.3094882247
  C        13.5793554949        6.4916548340       -1.9930036276
  H        14.3121388839        7.1918826361       -1.8174002799
  H        14.1025184829        6.4669523325       -4.0989671505
  H        12.4073447799        4.7006497317       -4.6603721910
  H        10.8881195337        3.7612627945       -2.8617664062
  H        11.0464233433        4.7242311248       -0.5228782621
