140

  C        15.0491854464       -0.8711470415        0.4020922331
  C        16.0750441878       -0.1339403622        1.0835153690
  C        17.2157419311        0.3697127866        0.3454987193
  C        18.3555102137        0.9157437863        1.0260291699
  C        19.4213327660        1.4103652296        0.2888348763
  C        16.1059060504        0.0328563204        2.5722667193
  C        15.5189195734        1.2751001068        3.1171654415
  C        15.7264934840        1.4767280315        4.4795192228
  C        16.4378874415        0.5537399308        5.2045224061
  C        17.1326933734       -0.5177065403        4.6113437474
  C        16.9466545933       -0.7662084375        3.2961728190
  H        18.3212068023        0.8330339222        2.0746164097
  H        20.3405825859        1.7440105869        0.7945281079
  H        14.9376738551        1.9184259722        2.4689501648
  H        15.3197573274        2.3531386305        4.9750927947
  H        16.5743351922        0.6052720460        6.2879175131
  H        17.6793802399       -1.2422574072        5.2256745153
  H        17.3073047659       -1.6780038240        2.8504334043
  C        15.0346078630       -0.9139185249       -1.0856734651
  C        13.9682031938       -1.6343148585       -1.7853333295
  C        13.0226067111       -2.3366301647       -1.0052282356
  C        13.0592597517       -2.3284598435        0.4869818228
  C        14.1509379291       -1.6503262700        1.1217234507
  C        17.1326432679        0.3453634487       -1.0703651363
  C        16.0459597765       -0.1792901525       -1.8112738171
  C        15.9564380578        0.1582019091       -3.3214633227
  C        15.0654269803        1.1683296522       -3.6637961193
  C        14.8404063944        1.5501278311       -4.9937756226
  C        15.6224181088        1.0141981544       -5.9904264527
  C        16.6137353059        0.0180633271       -5.6629332576
  C        16.7367891655       -0.4362342355       -4.3675102909
  H        17.4578547390       -1.2215786213       -4.2465481384
  H        17.2837269727       -0.4148486061       -6.4059432150
  H        15.4087062169        1.3123974207       -7.0211587063
  H        14.0276462658        2.2568582327       -5.2003103525
  H        14.5942449472        1.6958666142       -2.8325839347
  C        18.2217024112        1.0314264373       -1.7567064310
  C        19.2839280637        1.5483339499       -1.0820134084
  H        20.0231386637        2.0897179928       -1.5831225377
  H        18.1310604358        1.2497605400       -2.7977192720
  C        14.2139409090       -2.0936913980        2.5284834784
  C        14.9348663715       -3.2646771877        2.8941517441
  C        14.9070188834       -3.7014828614        4.2104211400
  C        14.2916579298       -2.8815394138        5.1850521188
  C        13.5529871007       -1.7769746604        4.8593763618
  C        13.5998186909       -1.3919670735        3.5559119049
  H        13.1556598747       -0.4582721401        3.3512702415
  H        12.9267643778       -1.3322412861        5.5909871889
  H        14.4009512022       -3.2929631977        6.2398575803
  H        15.4749918806       -4.4977408717        4.5053377328
  H        15.3376935153       -3.8841226333        2.0904637987
  C        11.9808473137       -3.0025646799        1.1640170255
  C        10.9734961656       -3.6983152175        0.5556303958
  C        10.9118629721       -3.7275536741       -0.8883330491
  C        11.9083453946       -3.0860325223       -1.5776738056
  H        11.8492139049       -3.0749029816       -2.6497061482
  H        10.0349084404       -4.1426454963       -1.3605976417
  H        10.2246316029       -4.0748384906        1.2075999040
  H        12.0005555229       -2.9810117321        2.2413067712
  C        14.0086219550       -1.9700938726       -3.2662133654
  C        14.9501648022       -2.8919406111       -3.6598957578
  C        14.9550746439       -3.3037324243       -4.9698896740
  C        14.0380538192       -2.7502613611       -5.9679654539
  C        13.1227414680       -1.8641312329       -5.5425284333
  C        13.1515703051       -1.4043500995       -4.1965383422
  H        12.4508450698       -0.6189677109       -3.8945636337
  H        12.4118460937       -1.5444233770       -6.2882546908
  H        14.1939357159       -3.0821325112       -6.9908109728
  H        15.7144182007       -4.0296150405       -5.3428334494
  H        15.7503529103       -3.1035968781       -2.9825971598
  C        11.5498213194        6.2784012553        0.3502122128
  C        10.5508229911        7.1093669001        1.0004106146
  C         9.4371265147        7.6208885072        0.2855822875
  C         8.3277769416        8.3491942398        0.9485048130
  C         7.3017769554        8.9606775507        0.2483994600
  C        10.6642015832        7.3641174001        2.4899951496
  C        11.5251450928        8.3255405298        2.9356653843
  C        11.4608914547        8.8574253168        4.2390907450
  C        10.6373339050        8.1889607553        5.2381392476
  C         9.8395406251        7.1507166134        4.8167836498
  C         9.7597923288        6.8001174717        3.4174881042
  H         8.3953519417        8.4693106695        2.0232716072
  H         6.5006474803        9.4171228093        0.8364777235
  H        12.1587483033        8.9599730092        2.2425382149
  H        12.0869017359        9.6412100683        4.5177525136
  H        10.7660816808        8.4236305774        6.2802664673
  H         9.2631456839        6.7042225887        5.5611023865
  H         9.2058566865        5.9213470764        3.2202194267
  C        11.6037567388        6.3125243459       -1.0959775756
  C        12.5822139911        5.5051262316       -1.7923727014
  C        13.7067789456        4.9669676266       -1.0284766565
  C        13.6262420125        4.9320557527        0.3760425985
  C        12.5555276039        5.5595994326        1.0709598061
  C         9.4367563782        7.5834596438       -1.1569717426
  C        10.5281919176        6.9875815328       -1.8084863719
  C        10.6909900376        7.3125578131       -3.2899792301
  C        11.4894572434        8.4178926386       -3.5319267746
  C        11.4906637964        9.0909271501       -4.7126318507
  C        10.6885294985        8.5807269540       -5.8074680578
  C         9.8943898269        7.4555251425       -5.5768625917
  C         9.9090219779        6.8184032288       -4.3606306608
  H         9.3085919846        5.9884587110       -4.0700262464
  H         9.3492932547        7.1066199832       -6.4046927541
  H        10.7769485123        9.0265718200       -6.8433583295
  H        12.2453717859        9.8962129173       -4.9491687550
  H        12.2346344857        8.8056825661       -2.7892829154
  C         8.3151862802        8.1649627659       -1.8286549660
  C         7.2208885002        8.7278576205       -1.1630508898
  H         6.2987083537        8.8007671551       -1.7505527426
  H         8.2852669313        8.0965391134       -2.8748770456
  C        12.4434395329        5.1332782984        2.4642512769
  C        11.6036537831        4.0653536011        2.7440261483
  C        11.6094061360        3.4135116257        3.9825229331
  C        12.3607662909        3.9044758544        5.0802547677
  C        13.2281305697        4.9724391428        4.7446565614
  C        13.2553083485        5.5716382808        3.5171019305
  H        13.9279641139        6.3604556742        3.2548995840
  H        13.8324102253        5.3460840038        5.5900688840
  H        12.4067358434        3.4999567120        6.0933137252
  H        10.8938873821        2.6080748242        4.0832001316
  H        10.8594011774        3.7716712626        1.9397717201
  C        14.6962452967        4.2639935337        1.1158596753
  C        15.7473914068        3.6604878606        0.4773041711
  C        15.8467223187        3.6912298438       -0.9607465403
  C        14.8766906896        4.4413428294       -1.6367528630
  H        14.9786344513        4.3237392979       -2.7144106722
  H        16.6860947374        3.1459393130       -1.4845578590
  H        16.5695936678        3.1625034274        1.0543019183
  H        14.6912681270        4.2513874455        2.1904976927
  C        12.4037381898        5.1501833961       -3.2733694588
  C        11.5547765756        4.0507580920       -3.4952643837
  C        11.4401233290        3.5498599501       -4.8145740758
  C        12.1296021390        4.1396530698       -5.8484694847
  C        13.0576940219        5.2405881297       -5.6309497112
  C        13.1796317252        5.7098975552       -4.3219522953
  H        13.9785517311        6.4248495956       -4.1649886503
  H        13.6270344277        5.6864889273       -6.3831987810
  H        11.9918355474        3.9067079578       -6.9456811230
  H        10.6667509240        2.8357729078       -5.0070349233
  H        11.0504733508        3.6240948671       -2.6289291322
