140

  C         4.5236028519       -0.0263031165       15.6939494279
  C         5.5464015325        0.6832250573       16.3427588938
  C         6.6622936109        1.2375381657       15.6716942671
  C         7.7718591717        1.6990142884       16.4127514419
  C         8.8179849560        2.2340756321       15.7313169553
  C         5.3263408675        1.0520560410       17.8012570158
  C         4.5394171878        2.2348723488       18.0876195237
  C         4.4984430183        2.7971927490       19.3757196077
  C         5.2368918547        2.2532836678       20.3972306099
  C         6.1300271554        1.1917089095       20.1386511272
  C         6.1736519245        0.6497736411       18.8358494224
  H         7.7507002604        1.7033777260       17.5502537184
  H         9.6496294859        2.6751580259       16.3287994576
  H         3.9894773985        2.7618342507       17.3323504656
  H         3.9564133504        3.6988250932       19.5233138062
  H         5.1283034141        2.4906028260       21.4290679576
  H         6.7451100022        0.8103474322       20.9686487870
  H         6.9274490306       -0.0705562905       18.6019845761
  C         4.4268313208        0.0829658811       14.2057662837
  C         3.2888938498       -0.5589392955       13.4979131338
  C         2.2547445278       -1.1683401857       14.2229008907
  C         2.3107229088       -1.2239160861       15.6852775715
  C         3.4635381077       -0.6920958376       16.3649030885
  C         6.6220731853        1.2539318273       14.2177208970
  C         5.5251801287        0.6985207440       13.5165341019
  C         5.4288943439        1.0410900804       12.0355449055
  C         4.5950250854        2.0531850079       11.5748453627
  C         4.7197228409        2.5614391090       10.2609223323
  C         5.6303754870        2.0179677710        9.3789810348
  C         6.4335470870        0.9335475038        9.8283913604
  C         6.2872878288        0.4910277398       11.1188834114
  H         6.9347117626       -0.3571305075       11.3504935451
  H         7.1756540450        0.4232523900        9.1962726834
  H         5.6103629557        2.5119605967        8.3647131332
  H         4.0665029627        3.3640410351        9.8184500060
  H         3.8173017938        2.4348173754       12.2110176790
  C         7.7432632661        1.8826596141       13.5572834847
  C         8.8211210648        2.3238528794       14.2832876632
  H         9.5644542841        2.9790144570       13.7770040401
  H         7.7069833113        2.0114591874       12.4742464025
  C         3.5524783596       -1.1854733243       17.8027658486
  C         4.3756330496       -2.3153502073       18.2128497619
  C         4.1411612226       -2.8851106846       19.4535806600
  C         3.2328537365       -2.3962682493       20.3825518060
  C         2.5192084563       -1.2829714564       20.0425206410
  C         2.6694243139       -0.6431105553       18.7577232232
  H         2.0345820196        0.1847448249       18.4936814729
  H         1.6481770072       -1.0420699399       20.7142874149
  H         2.9623947254       -2.9511328908       21.2437358986
  H         4.7693602847       -3.7213182891       19.7787582676
  H         5.1304631514       -2.8316407920       17.5433001682
  C         1.2623219178       -1.9426523071       16.3731332048
  C         0.2359927371       -2.5338738599       15.6693261554
  C         0.2168727785       -2.5172110323       14.2293537719
  C         1.1585836196       -1.9140279917       13.5050075763
  H         1.4038662831       -2.0420256403       12.4815788097
  H        -0.6252024720       -3.0805958708       13.7656882531
  H        -0.6748065369       -2.9104532860       16.1844143571
  H         1.2869081252       -2.0712298045       17.4336150527
  C         3.4684162017       -0.9518098333       12.0550895951
  C         4.4771841728       -1.8368758145       11.6851269915
  C         4.6576711123       -2.1958055528       10.3465197344
  C         3.7601516044       -1.6932878196        9.3427169489
  C         2.7535375467       -0.7871865061        9.6879440768
  C         2.7251829579       -0.3956100904       11.0314849980
  H         1.9437475225        0.2951814984       11.3494375697
  H         1.9608715659       -0.4693575171        8.9823963796
  H         3.7215995714       -1.9814340878        8.2632683340
  H         5.4875481241       -2.8723709908       10.0917958020
  H         5.1678281217       -2.2145661084       12.4229587953
  C         0.9000363560        7.0075446974       15.6886316471
  C        -0.1483975240        7.6768808384       16.4232208045
  C        -1.2335658978        8.2358024194       15.7567544896
  C        -2.2606339085        9.0531499503       16.4980117484
  C        -3.2558131463        9.6835979126       15.7942113423
  C        -0.0723981839        8.0005204486       17.8544620704
  C         0.4915916851        9.2395213760       18.1797018841
  C         0.2902064075        9.6996463519       19.5035097994
  C        -0.4432025525        8.9261567573       20.4654715416
  C        -0.8777153343        7.6199929887       20.0890422693
  C        -0.7355848514        7.2395907262       18.7418527573
  H        -2.3306357230        9.2087618136       17.5521071490
  H        -4.0214405670       10.1301476231       16.4081490583
  H         1.0558271507        9.8157333962       17.4872191991
  H         0.7540908715       10.6836516478       19.7311085132
  H        -0.5429026408        9.2155599676       21.5352104086
  H        -1.4177579664        7.0487063064       20.7913518862
  H        -1.1243142433        6.2653441156       18.4840372516
  C         0.8480835839        7.0200068985       14.1940970997
  C         1.7845274436        6.3676415903       13.3806474647
  C         2.9169403102        5.7972857554       13.9295904612
  C         3.0221622221        5.8243997996       15.3575545584
  C         2.0252855471        6.3448273016       16.2050112265
  C        -1.3121763651        8.2878011765       14.2649333026
  C        -0.2196931485        7.7258535311       13.5456386093
  C        -0.0455005788        8.2294303053       12.1294729558
  C         0.9949988613        9.2377540582       11.9546736874
  C         1.2097684296        9.8645311813       10.7086202222
  C         0.6079487451        9.3234230725        9.6473339940
  C        -0.3648030563        8.2991787051        9.7462942907
  C        -0.7074067650        7.8218170816       10.9788504908
  H        -1.4342773478        7.0289279826       11.0176356298
  H        -0.8887901067        7.9762221261        8.8553529724
  H         0.8368810022        9.7728496518        8.6590441263
  H         2.1017588257       10.4524324621       10.5865816685
  H         1.6795909776        9.4559897880       12.7881254162
  C        -2.2983943212        9.0989770200       13.6025850619
  C        -3.2779058371        9.7121938393       14.3644301738
  H        -4.1464125703       10.1293370362       13.9214425317
  H        -2.4166718014        9.1802329946       12.5492409348
  C         2.0155326506        6.0090964900       17.6547295046
  C         1.3239842111        4.8663970312       18.0371027004
  C         1.2604307900        4.5046516319       19.4261036358
  C         1.9176639165        5.2671305629       20.3718634233
  C         2.5685268898        6.4802035173       19.9722967931
  C         2.5972338319        6.8246313480       18.5967610491
  H         3.0103264911        7.8293800087       18.3600009845
  H         2.9462359909        7.2245086867       20.6572755466
  H         1.8205578280        5.0534671876       21.4430220819
  H         0.7172930985        3.6468369990       19.8207292240
  H         0.8158715727        4.2693200778       17.3019278972
  C         4.1284164720        5.0710183207       15.9271067955
  C         5.0424906400        4.4125957790       15.1473782080
  C         4.9995449196        4.4994405206       13.7430011464
  C         3.8910453233        5.0689138405       13.2019144099
  H         3.6654799781        5.0548062355       12.1314500280
  H         5.6498322515        3.9371915974       13.0447870145
  H         5.8473968595        3.8776868514       15.6056892663
  H         4.1934105827        5.0789308493       17.0267023202
  C         1.5740358679        6.1722927673       11.9172452996
  C         0.6444263691        5.2415756105       11.4371137778
  C         0.7543301451        4.7445021902       10.0991927646
  C         1.7923069013        5.2539600671        9.2204016979
  C         2.6662034787        6.2470470029        9.7107653976
  C         2.6083935686        6.5960315643       11.0575263820
  H         3.2805695484        7.3679645706       11.4729410619
  H         3.4069101255        6.6663728639        9.0666891543
  H         1.8426196560        4.8552847072        8.2227376455
  H         0.0477501370        3.9169721721        9.7657721247
  H        -0.0800895723        4.8257485183       12.1567709675
