140

  C        14.5519357523       -0.0720227272        1.3821867016
  C        15.6458183552        0.6695529620        1.9363016704
  C        16.6824726188        1.1864577613        1.1466107415
  C        17.8906427079        1.7131847924        1.7826625247
  C        18.8710408270        2.3889885694        1.0580732347
  C        15.6296699544        1.0554531296        3.4140993531
  C        14.6860674302        2.0947212865        3.7052528514
  C        14.6906434223        2.6921325312        4.9542883598
  C        15.4580205572        2.1856614436        6.0038355189
  C        16.1969987627        1.0600491169        5.7150022517
  C        16.3754221507        0.5066368515        4.4268216139
  H        18.0921658124        1.7077677736        2.8588103183
  H        19.7839788824        2.7653645857        1.5088893720
  H        14.1778345577        2.4625303287        2.8212321339
  H        13.9859258481        3.5177093905        5.0602241973
  H        15.4461443556        2.5536387701        7.0578605695
  H        16.7559747637        0.6401587849        6.5505908249
  H        17.0188918710       -0.3259579544        4.1943572874
  C        14.5058318250       -0.1876861559       -0.0805893653
  C        13.4014596404       -0.7537658076       -0.7496790356
  C        12.2740498802       -1.1529862030        0.0221751253
  C        12.3245814029       -1.1811661225        1.4382964514
  C        13.4508977314       -0.6419353528        2.0994699997
  C        16.5639593178        1.2659880860       -0.2740821106
  C        15.4533168883        0.6012233989       -0.8731923776
  C        15.1522448562        1.0093544095       -2.3282132147
  C        14.2072572927        2.0025648979       -2.6020319545
  C        14.0421384480        2.4955622704       -3.9226119206
  C        14.9076507617        2.1811368565       -4.9447232077
  C        15.9062050732        1.2452315036       -4.6671635274
  C        16.0277893566        0.6761325536       -3.4213358773
  H        16.7769046173       -0.1088358507       -3.2886041796
  H        16.6199724370        1.0557148927       -5.4667135847
  H        14.9039478359        2.6375926431       -5.9014057836
  H        13.1619083587        3.1097375023       -4.1695452488
  H        13.4726483558        2.1914579903       -1.8178031624
  C        17.4971339834        2.1162358509       -0.9653999981
  C        18.6061887571        2.5552158370       -0.3627494024
  H        19.2155409694        3.1861847441       -0.9467908609
  H        17.2725468440        2.4194160580       -1.9683612826
  C        13.4797848789       -0.9561865800        3.5701900182
  C        14.2172739722       -2.0461883970        4.0623749355
  C        14.2094220866       -2.3849185023        5.3923562469
  C        13.4504038030       -1.6334402573        6.2849874967
  C        12.6368194673       -0.6086767231        5.8197100097
  C        12.6306760837       -0.3198682501        4.4860745939
  H        12.0344814734        0.5589605934        4.2281395284
  H        11.9216339255       -0.1747785851        6.4690738945
  H        13.5059079244       -2.0317197269        7.3579115914
  H        14.8863214666       -3.1000442870        5.7779049771
  H        14.8213066895       -2.7688953271        3.4216007844
  C        11.2228592868       -1.6739923418        2.2197326749
  C        10.1721804383       -2.2647622502        1.5994642234
  C        10.0760267325       -2.2105544983        0.1774509778
  C        11.0861018289       -1.7140301827       -0.5854739795
  H        11.0690846020       -1.7899609850       -1.6474245179
  H         9.2663778934       -2.7295594476       -0.2581297032
  H         9.3525267805       -2.7056659429        2.1686576499
  H        11.2205433465       -1.6889260273        3.2915672697
  C        13.3944685699       -1.1729459567       -2.1469847872
  C        14.4025422385       -2.0200514993       -2.6128919898
  C        14.5306069254       -2.3581605533       -4.0193298136
  C        13.7586236032       -1.7488760838       -4.9528139203
  C        12.8336777039       -0.7825129361       -4.5196573053
  C        12.5842521566       -0.5755913176       -3.1491974353
  H        11.9291342811        0.2321532452       -2.8758520479
  H        12.1595457894       -0.3267899513       -5.2502685387
  H        14.0431032346       -1.8610027215       -5.9993495153
  H        15.3211469130       -2.9695369161       -4.3802105107
  H        15.0257754667       -2.5988853358       -1.9211527762
  C        10.8399550793        7.4479425169        1.3146015868
  C         9.8490687450        8.1051750527        2.0935673989
  C         8.6847425090        8.6084785261        1.4164728411
  C         7.6583729753        9.2855755175        2.1304321112
  C         6.6516474689        9.9625902619        1.5213089727
  C         9.8863295776        8.4541202239        3.5068890758
  C        10.4800141769        9.6705322115        3.8723844184
  C        10.4287580091       10.1207970670        5.2203916143
  C         9.7108179276        9.3936564585        6.1862318529
  C         8.9485564946        8.3128055789        5.7809918934
  C         9.0863068161        7.8300894211        4.4750639098
  H         7.7911871466        9.2485070521        3.1871548581
  H         6.0023608850       10.5347537309        2.2115628491
  H        11.0755546361       10.2414974991        3.1359153036
  H        11.1388822071       10.9614614695        5.4945472818
  H         9.7036411749        9.8084592106        7.2003619058
  H         8.2101815821        7.8134368771        6.3655056271
  H         8.4644865595        7.0090495056        4.1900176168
  C        10.7836953755        7.4254676607       -0.2123035028
  C        11.8133637002        6.6705493727       -0.8288120790
  C        12.8601373524        6.0831717626       -0.0895017394
  C        12.9013878623        6.0789486434        1.3858480678
  C        11.8671079628        6.7028268723        2.0419692513
  C         8.6169444412        8.6154823402       -0.0814818448
  C         9.7044249468        8.0738463479       -0.8200430117
  C         9.7446818836        8.4680303626       -2.2993032513
  C        10.5529730563        9.5497466211       -2.7117655271
  C        10.4375413178       10.0466457428       -4.0298788590
  C         9.5691380340        9.4860382413       -4.9194463508
  C         8.7855663708        8.3664593425       -4.5543773477
  C         8.8785757764        7.8732412267       -3.2274651135
  H         8.2472275596        7.0104399506       -3.0645195198
  H         8.0916120476        8.0278607189       -5.3085935062
  H         9.3576727308        9.7917877474       -5.9895182574
  H        11.1019285349       10.8549407620       -4.3484841986
  H        11.1864600335       10.1059381672       -2.0119518934
  C         7.5355548354        9.2960979430       -0.6517163212
  C         6.5042970593        9.9686763465        0.0931968187
  H         5.6640660730       10.4341573552       -0.3398658912
  H         7.4487350825        9.3095801254       -1.7205900726
  C        11.7794266068        6.3497930835        3.5340114718
  C        10.8122237884        5.4168450314        3.9640912644
  C        10.5805345837        5.1982910313        5.3092173048
  C        11.6364922549        5.4331828973        6.2185583249
  C        12.7815681474        6.1541771976        5.7879210327
  C        12.7868779742        6.6684656439        4.4491263094
  H        13.6249905381        7.3571638537        4.2255406839
  H        13.5055412568        6.4387159102        6.5671755860
  H        11.6575128717        5.0675178005        7.2474898443
  H         9.7745143054        4.4807269693        5.6194119483
  H        10.0743712544        5.0865370727        3.2076150437
  C        13.9529627804        5.2967568025        1.9809912631
  C        14.8721273003        4.5791668925        1.2730138185
  C        14.8539899444        4.6317834534       -0.1398717579
  C        13.9119703702        5.3166133364       -0.8173673466
  H        13.8506308992        5.1859022869       -1.8713661855
  H        15.3716401612        3.8149915997       -0.5951550193
  H        15.5034556884        3.9082475650        1.8721286625
  H        13.9453107878        5.1700113334        3.0729050821
  C        11.8763663447        6.3799034920       -2.2681122828
  C        11.0318077759        5.4399812721       -2.8094158968
  C        10.9670887698        5.2247256456       -4.2100534644
  C        11.8050045871        5.9079638179       -5.0698688740
  C        12.7474196908        6.8190419657       -4.5255296398
  C        12.6830097337        7.1043621447       -3.1686360517
  H        13.2784630935        7.9214319133       -2.7362013763
  H        13.3934039170        7.4446967096       -5.1231107384
  H        11.7136678665        5.6953903821       -6.1330591727
  H        10.4303693874        4.4461337920       -4.6758583780
  H        10.3314898062        4.9569174507       -2.1426197273
