140

  C         4.0337757789       -0.0539262133       15.1902552429
  C         5.0391405026        0.6920897830       15.8931848875
  C         6.0523394108        1.3602396443       15.2589114831
  C         7.0264852009        2.0970769378       15.9499632381
  C         8.0345705050        2.7233493390       15.2599960885
  C         4.8547448936        1.1174005301       17.3887558131
  C         3.9989586272        2.2099231687       17.8457533417
  C         4.0307739027        2.5722267756       19.1389108814
  C         4.8651191561        1.9076765897       20.0698379436
  C         5.6460555994        0.8638882004       19.6724988160
  C         5.6988264847        0.5160150768       18.3082762476
  H         6.9862155744        2.1903815019       17.0445431920
  H         8.7849490188        3.3409281523       15.8193654170
  H         3.2200690943        2.6098691313       17.1627105732
  H         3.3764397683        3.3795357604       19.4788443765
  H         4.9867792484        2.2561394767       21.0981954319
  H         6.3638291247        0.4505604784       20.3275515979
  H         6.4049630514       -0.2134632047       17.9647288110
  C         4.0122366938       -0.0297785571       13.7129102167
  C         2.9232533718       -0.6168748915       12.9538036677
  C         1.7869571711       -1.1460801123       13.6206544076
  C         1.8094007199       -1.2152811698       15.0868590131
  C         2.9217196660       -0.6739824166       15.9026211957
  C         6.0929564506        1.3455018307       13.7909435011
  C         5.0846148518        0.7340023333       13.0570281335
  C         5.0183665909        0.9932656619       11.5556606609
  C         4.1634480256        1.9831167807       11.0337287839
  C         4.0822411311        2.3813070743        9.6995044252
  C         4.9402874721        1.7048465999        8.8093486163
  C         5.7220152921        0.6561054384        9.2960313248
  C         5.7001027117        0.2376500398       10.6129559798
  H         6.2724674717       -0.6053059262       10.8806917758
  H         6.3397909599        0.0644554914        8.6159257470
  H         5.1395567303        2.0561249398        7.8060150827
  H         3.3676503213        3.1220228103        9.3373565937
  H         3.6247940231        2.5812059160       11.8007721178
  C         7.2191795962        2.0480416032       13.0616591501
  C         8.1484640218        2.6755544495       13.8643893489
  H         9.0306182350        3.1224972816       13.4439861619
  H         7.2880331537        2.1040568677       11.9814469816
  C         2.9590861390       -0.9308951971       17.3451292946
  C         3.4409618648       -2.1924457084       17.7948997060
  C         3.4114557575       -2.6086619242       19.1319649093
  C         2.8287254943       -1.6854469416       20.0878517066
  C         2.1428073238       -0.5605116665       19.6303595896
  C         2.3221527635       -0.1457994094       18.3010755700
  H         1.9007958043        0.7487770415       17.9216612490
  H         1.5401983078        0.0465143678       20.2852464498
  H         2.7842139497       -2.0133099266       21.1177492884
  H         3.7796089721       -3.5498869689       19.4904603043
  H         3.7686952600       -2.8763035254       17.0228461217
  C         0.6958451808       -1.7500739728       15.8192054823
  C        -0.2962679053       -2.4569372619       15.1409347632
  C        -0.2844826547       -2.4631307527       13.7083509865
  C         0.7083462305       -1.8867370745       12.9982592268
  H         0.6859218347       -2.0795664505       11.9251182979
  H        -0.9467639398       -3.1864620084       13.1476919409
  H        -1.1078153766       -2.9389186043       15.7081910459
  H         0.5401772839       -1.6174970175       16.8902470719
  C         3.0043284320       -1.0448914505       11.4616905666
  C         3.9523114701       -1.9743540285       11.0893679398
  C         3.7722108341       -2.6598108021        9.8524174555
  C         2.8174108559       -2.2449831551        8.8997327500
  C         2.0123591174       -1.1622385003        9.1784512457
  C         2.1523524367       -0.5312527964       10.4511412975
  H         1.4719184087        0.2895428439       10.6994314318
  H         1.3422216245       -0.7659297553        8.4429301545
  H         2.8098644367       -2.6922368691        7.8915314195
  H         4.4769302055       -3.4942344434        9.7190289357
  H         4.7204124550       -2.3377262158       11.7308521123
  C         0.3648445614        7.4073090135       15.3015213448
  C        -0.6420242871        8.0704306727       16.0414488329
  C        -1.7469388965        8.6170176652       15.3033306298
  C        -2.7620129099        9.2915114194       15.9184287311
  C        -3.7259232792        9.9507968263       15.2322270377
  C        -0.5357950879        8.3928094674       17.4810327037
  C         0.2759428805        9.4226234779       17.8258521334
  C         0.3638181113        9.8586975497       19.1581651460
  C        -0.2888099371        9.1738618414       20.1507583399
  C        -1.1723654945        8.0867207551       19.7538007486
  C        -1.2627627528        7.7217713137       18.4227485059
  H        -2.7332344396        9.4266550625       16.9727130542
  H        -4.4454212532       10.4356351167       15.8679010111
  H         0.8105592100        9.9820723320       17.0061278041
  H         1.0458904889       10.6912384690       19.3308179167
  H        -0.2045961776        9.4901700668       21.1997122708
  H        -1.6456889649        7.4640951687       20.5216441917
  H        -1.9061280742        6.9094992753       18.1205171290
  C         0.3089476046        7.4203055414       13.8516954414
  C         1.3263440739        6.6861319660       13.1528098281
  C         2.4328718250        6.0644474603       13.8301377996
  C         2.4214173989        6.0257808291       15.2714177029
  C         1.3376107079        6.6475869559       16.0147437868
  C        -1.8333236137        8.5196365848       13.8375356786
  C        -0.7510297491        7.9670709587       13.1250252228
  C        -0.6735938304        8.3438672146       11.6723714371
  C         0.1820400166        9.2904669575       11.2324423202
  C         0.2281807481        9.7023153980        9.8700398964
  C        -0.6474311501        9.1199380512        8.9155381892
  C        -1.4877076312        8.1382621476        9.3518033157
  C        -1.5314245943        7.7670185335       10.6959763757
  H        -2.0889194839        6.8631646190       10.9325836542
  H        -2.1950393415        7.6841347714        8.6088459058
  H        -0.6585657354        9.3629589345        7.8645231756
  H         0.9832444602       10.4569266709        9.6662102129
  H         0.8881164889        9.7614659642       11.9108298019
  C        -2.7678928506        9.3567161236       13.1305964794
  C        -3.7206966843       10.0136148995       13.8571517374
  H        -4.3448051476       10.6789147373       13.2913891233
  H        -2.7226839461        9.3969840406       12.0333395613
  C         1.3259906996        6.2235234111       17.4260370400
  C         0.7538325517        4.9901775770       17.7943323645
  C         0.8690207901        4.4760161099       19.0811942905
  C         1.6919107536        5.1449462365       19.9917848889
  C         2.2957671483        6.3654604209       19.6536279449
  C         2.0981335638        6.8869128980       18.3819740928
  H         2.4649371532        7.8986887309       18.2379282447
  H         2.9390486881        6.8469063785       20.4005952059
  H         1.8509815035        4.7672041713       21.0015438335
  H         0.4529446820        3.5301875244       19.3616303989
  H         0.1186390854        4.5131983063       17.0608086614
  C         3.5566734989        5.4355861252       15.9322741154
  C         4.6295450957        4.8707258792       15.2283990180
  C         4.5799824950        4.7946039356       13.8110473745
  C         3.5225760175        5.4333978325       13.1269727139
  H         3.5616511537        5.4539815970       12.0508427357
  H         5.3604361001        4.3103818457       13.1952479809
  H         5.4571260092        4.3370935086       15.7039846618
  H         3.5321286091        5.4228729023       17.0428330847
  C         1.2356945334        6.3375720875       11.7152249048
  C         0.4130492562        5.2325938878       11.4185119718
  C         0.3486723407        4.6934327669       10.1112249301
  C         1.2672826469        5.2418613777        9.1710777082
  C         2.1203735704        6.3067623884        9.4885253281
  C         2.1201522696        6.8740810529       10.7376899274
  H         2.7778393367        7.7180333930       10.8456937700
  H         2.8110412979        6.6542034411        8.6614589384
  H         1.3106199508        4.7939985771        8.1922421456
  H        -0.1823011459        3.7969149946        9.8203146611
  H        -0.2474868065        4.9073354225       12.2187258034
