140

  C         4.3004689791       -0.9775968872       13.6245881984
  C         5.3787233098       -0.2645235959       14.3573768514
  C         6.5004527500        0.1423689221       13.6394354374
  C         7.6131902242        0.6966989839       14.3951704085
  C         8.6136655653        1.3581994652       13.7536850527
  C         5.3099372018        0.0963178936       15.7950352625
  C         4.3750135826        1.1153303995       16.1239782084
  C         4.3553370475        1.7014325922       17.3614992839
  C         5.2358358734        1.1397795042       18.3771513955
  C         6.1616534332        0.1570150225       18.0576619774
  C         6.2242539208       -0.2976731990       16.7857528596
  H         7.6404089281        0.5595532259       15.4868533788
  H         9.2822065589        1.9512421161       14.3430738609
  H         3.7055516576        1.4103941169       15.3073678478
  H         3.6538533223        2.4523535694       17.7419675749
  H         5.2641870028        1.6160389180       19.3923009235
  H         6.7668452549       -0.3632394517       18.7543376427
  H         6.9395608297       -1.0749476235       16.5655604699
  C         4.3866306440       -1.0481721228       12.1742794588
  C         3.2939677458       -1.6418861093       11.4289833356
  C         2.1788254644       -2.1808941074       12.1419744204
  C         2.1615291910       -2.1325795943       13.5614529769
  C         3.2119579711       -1.6004123392       14.3303064067
  C         6.4713941273        0.2926172280       12.2021304208
  C         5.3762053840       -0.2203191458       11.5080591664
  C         5.3445204368        0.2072887721       10.0946707433
  C         4.4623567850        1.2051178562        9.7027024115
  C         4.4769709702        1.6683310302        8.4006864062
  C         5.4608836478        1.2949511787        7.4423932644
  C         6.2489141848        0.1424871628        7.8122640847
  C         6.2377291575       -0.3549935926        9.1493528786
  H         6.6608190675       -1.2631483497        9.5630081254
  H         6.9631133685       -0.2702026772        7.0884099093
  H         5.4335661470        1.8850240533        6.5477122227
  H         3.7869910522        2.4160388551        8.1302216095
  H         3.8451289857        1.6542783805       10.4439182042
  C         7.5075298250        1.0931743274       11.5964241512
  C         8.5816201566        1.5178344241       12.3434507934
  H         9.3017912906        2.1455174682       11.8489517012
  H         7.3888419020        1.3728496821       10.5901264415
  C         3.3674103677       -2.0109232903       15.8079462464
  C         4.1945535487       -3.0788632714       16.0744824415
  C         4.1914261956       -3.6636323952       17.3874910834
  C         3.3292007453       -3.1949165215       18.4018863717
  C         2.6514058876       -2.0098109334       18.1289573214
  C         2.5802522450       -1.4692680580       16.8423946003
  H         1.9077543533       -0.5674480715       16.6782250458
  H         2.0802867012       -1.5118796305       18.9270599714
  H         3.3455051523       -3.6206488736       19.4319331548
  H         4.8177471400       -4.4540307816       17.6485080708
  H         4.8015703132       -3.3920537173       15.2685002116
  C         1.0963702031       -2.7883959465       14.2387227925
  C         0.0519868018       -3.3873211098       13.5460997204
  C         0.1213042395       -3.4602063873       12.0930162180
  C         1.1273188835       -2.8246360021       11.4108831075
  H         1.2537855433       -2.9624804217       10.3244687703
  H        -0.5746118771       -4.0182430981       11.4071119519
  H        -0.8121954562       -3.8192263655       14.1059979734
  H         1.0429037313       -2.7634139131       15.3358669469
  C         3.2223834702       -1.8485940135        9.9313463123
  C         4.1473776758       -2.7753198756        9.4348500371
  C         4.3393192180       -2.9790154266        8.0879930282
  C         3.4365685556       -2.3605645039        7.1146272610
  C         2.4799150192       -1.5019762971        7.6450763315
  C         2.4351429253       -1.1849901650        8.9952234221
  H         1.7173353058       -0.4035277079        9.3266131655
  H         1.7475565758       -1.0050348676        6.9183991088
  H         3.4913472036       -2.4763944249        6.0498967873
  H         5.1196072100       -3.7191317340        7.8338966090
  H         4.9179958139       -3.2617547587       10.0782960542
  C         0.8683230574        5.9740464178       14.0212730625
  C        -0.1752156705        6.5521280656       14.7675524931
  C        -1.2964725192        7.1524996397       14.1271128085
  C        -2.3289797101        7.9297667915       14.8418243698
  C        -3.4606323902        8.5042512091       14.2424559797
  C        -0.0197067940        6.9365992317       16.1981637621
  C         0.9380632311        7.9813205578       16.5492244260
  C         0.9065631101        8.5653592863       17.8174386968
  C         0.0986802315        8.1184398588       18.8495209305
  C        -0.7439199931        7.0131278829       18.5820288046
  C        -0.7859898024        6.4285146009       17.3226793847
  H        -2.2137925412        8.0678619775       15.9474422689
  H        -4.2457270902        9.0613527807       14.7629798464
  H         1.5659862988        8.4463541663       15.7852659233
  H         1.6534837366        9.4281065980       17.9502124319
  H         0.1264124549        8.5989138988       19.8378089958
  H        -1.4702083353        6.6969327711       19.3126784058
  H        -1.4301651159        5.5628280460       17.1990520407
  C         0.8021753994        6.0280513691       12.5292037947
  C         1.8000596579        5.2868639495       11.7810367244
  C         2.9749275924        4.7627947483       12.4215183519
  C         2.9801502874        4.6752010804       13.8458287243
  C         1.9097094626        5.1970397632       14.6008627460
  C        -1.3456092554        7.2258167848       12.6737246591
  C        -0.2614576114        6.7736275631       11.9733241219
  C        -0.2792789971        7.1766522117       10.4625849134
  C         0.5511239142        8.2806342426       10.1875687142
  C         0.4792951430        8.9398009454        8.9155302377
  C        -0.2987852259        8.4145814063        7.9243857858
  C        -1.0713816456        7.2875987550        8.1829764943
  C        -1.1395887398        6.7231339034        9.4732529138
  H        -1.7424957124        5.8351436130        9.6655232054
  H        -1.7368757220        6.8950760908        7.3730982762
  H        -0.2441119930        8.8368024107        6.8889714965
  H         1.1510219987        9.7288412804        8.6071780690
  H         1.2932812474        8.6214985539       10.9488550891
  C        -2.4872582764        7.9261834613       12.0548553332
  C        -3.5077782841        8.4780205163       12.8627075946
  H        -4.3057377687        8.9475495034       12.2537500850
  H        -2.4469876524        8.1033240120       10.9548778512
  C         1.7464765830        4.7422188095       16.0464230495
  C         0.7965738648        3.7737463267       16.2782257032
  C         0.5507773936        3.3121411789       17.5244027309
  C         1.1683632370        3.9768830435       18.6250570600
  C         2.1689965830        4.9115894463       18.3836244915
  C         2.5790941025        5.1904205373       17.1229645878
  H         3.2723612605        6.0287512331       16.9938441878
  H         2.6248004617        5.3629163142       19.2375707501
  H         0.9087796474        3.6288665803       19.6424744261
  H        -0.2397207578        2.5900133454       17.5324576350
  H         0.2284090166        3.3339047813       15.4146592330
  C         4.0295352243        3.9582814324       14.4234218101
  C         5.0373769511        3.4853499468       13.6555032734
  C         5.1431834879        3.6710403851       12.2571602159
  C         4.0917320067        4.3095208453       11.6610915782
  H         4.1390583735        4.3768182923       10.5982060199
  H         6.0024068980        3.3616906560       11.6876233672
  H         5.8268046215        2.8949280347       14.1029913161
  H         4.0297353546        3.7821698099       15.5056535805
  C         1.5496213741        4.9102420634       10.3463953456
  C         0.6032415256        3.9235721223       10.0839446819
  C         0.4388976669        3.4213619822        8.7934338688
  C         1.2885861151        3.7881837025        7.7644057590
  C         2.2422570190        4.7487437149        8.0108303045
  C         2.3754029061        5.3818185242        9.2610303817
  H         3.0577803764        6.2304865710        9.2878016081
  H         2.8991111716        5.0671906413        7.1759856871
  H         1.2432446958        3.2136708862        6.7989404989
  H        -0.4496679339        2.7443106552        8.6560631028
  H        -0.0489366305        3.5774102299       10.9162481997
