140

  C         0.6416829598        1.0774663030       15.0999069612
  C         1.7662559451        1.7493879578       15.7224031159
  C         2.8091128616        2.3013184371       14.9988452897
  C         3.9639385700        2.9001319714       15.6237526529
  C         4.9799059539        3.4779717056       14.9062420874
  C         1.6320666359        2.1180007927       17.1162008823
  C         0.7829894604        3.1193250266       17.4170278168
  C         0.8651095165        3.6535227978       18.7365482203
  C         1.7646789769        3.2149287410       19.6961753817
  C         2.6419558020        2.1497738696       19.3839508118
  C         2.5601821372        1.6302956461       18.0936015445
  H         4.0205359846        2.9119829506       16.7424024751
  H         5.7686598299        4.1133095566       15.2965809688
  H         0.0621204783        3.4208949433       16.6947631138
  H         0.0759935576        4.4216313443       19.0553144839
  H         1.7067885997        3.5566484055       20.6950852530
  H         3.3719760903        1.7765886231       20.0495195256
  H         3.2574144601        0.8148346029       17.9202344430
  C         0.5999048816        1.1065061307       13.6174024317
  C        -0.4031730388        0.3161256396       12.9467823509
  C        -1.3879275582       -0.3329846662       13.6929506369
  C        -1.4157401702       -0.2523460806       15.1744442236
  C        -0.3012748352        0.3260164857       15.7584389691
  C         2.7479659990        2.3197486874       13.5770101114
  C         1.6586575329        1.7375140179       12.9159036745
  C         1.5934335387        1.9431598623       11.4328754608
  C         0.7515105570        2.9127545165       10.8747997331
  C         0.9209997618        3.3585599086        9.5681915353
  C         1.9444294022        2.8372505032        8.8121896123
  C         2.7952955431        1.8908086399        9.3553309495
  C         2.6621650447        1.4228485817       10.5897989611
  H         3.3814120055        0.6618682429       10.8732525125
  H         3.5556792455        1.4214383655        8.7214631783
  H         2.2898886045        3.2315646046        7.8439110289
  H         0.3179413180        4.1580481259        9.1290402722
  H        -0.0546538431        3.1075938314       11.5688145868
  C         3.7114865843        3.0825792555       12.8098177091
  C         4.8667368619        3.6429671195       13.4601149567
  H         5.5740523505        4.2676833163       12.8855251199
  H         3.7068387511        3.0478115778       11.7142173970
  C        -0.2034498107        0.0447301176       17.2227000759
  C         0.7154835590       -0.9116061507       17.5587746783
  C         0.8123043830       -1.4352455315       18.8654324856
  C         0.0351167296       -0.8214810248       19.8475201952
  C        -0.7653752109        0.2777286508       19.5914264828
  C        -1.0284979452        0.6164877335       18.2181660662
  H        -1.8302034620        1.3204134775       17.8304464834
  H        -1.3355596966        0.7983196067       20.3300975581
  H         0.0863434998       -1.1477230384       20.8922208885
  H         1.3458458890       -2.3491999560       19.0705046673
  H         1.4225296176       -1.2502293538       16.8021622836
  C        -2.4677501434       -0.9056236931       15.8033863478
  C        -3.5247339996       -1.5491001587       15.1411440902
  C        -3.4313204605       -1.6691763202       13.7376068222
  C        -2.4120973441       -1.1381663487       13.0374252577
  H        -2.3887442751       -1.2607422476       11.9585003217
  H        -4.2376537957       -2.1992291997       13.2481087424
  H        -4.4488204560       -1.9426897444       15.6267839361
  H        -2.4201245255       -0.9552878371       16.8660822472
  C        -0.2630248017       -0.0622485285       11.4732128908
  C         0.8111171804       -0.9637242659       11.1140223260
  C         1.0498773630       -1.2324296712        9.7008755850
  C         0.0441398345       -0.7826856063        8.7685059196
  C        -1.0477714064        0.0034805525        9.1957978557
  C        -1.1347596110        0.4570898060       10.5358924260
  H        -1.9004197734        1.1801718700       10.8089650385
  H        -1.8037586924        0.2924452337        8.4326135852
  H         0.1406362774       -1.1461212273        7.7317435390
  H         1.7830177040       -1.8743086755        9.3200111664
  H         1.4930848522       -1.3568565996       11.9031489686
  C        -2.7932252063        8.1618970518       14.9357514407
  C        -3.7726721110        8.9483267767       15.6212112925
  C        -4.9228366166        9.4056712178       14.8721099208
  C        -5.9084256258       10.2219220340       15.4783439000
  C        -6.9340502096       10.7348272377       14.6704733285
  C        -3.5485080399        9.2783838621       17.0243777736
  C        -2.5886197628       10.1747210668       17.3459572594
  C        -2.4687571862       10.7576384385       18.6088939953
  C        -3.3212041161       10.3641213053       19.6259325932
  C        -4.2749527224        9.2984258824       19.3818678385
  C        -4.4013351114        8.8330346480       18.0399582731
  H        -6.0523109200       10.3128380696       16.5578056288
  H        -7.7207229741       11.2888614562       15.1713583731
  H        -1.8337852381       10.5503987973       16.5339789117
  H        -1.6667882215       11.4635203834       18.8696322054
  H        -3.2553889690       10.7131652125       20.6514362209
  H        -4.8634594249        8.8842450918       20.2239420298
  H        -5.1614281499        8.0940678020       17.7848429084
  C        -2.7403442039        8.0647733460       13.4245691196
  C        -1.7226246838        7.3811606313       12.8053235201
  C        -0.6913976992        6.7652773004       13.5697374835
  C        -0.6212680396        6.9031003041       14.9860282289
  C        -1.7746938804        7.4426163718       15.6401694318
  C        -4.8497214693        9.2364267123       13.3861356736
  C        -3.7843368498        8.6860590179       12.7243830337
  C        -3.6736543692        9.0235419030       11.2426948752
  C        -2.7521254239        9.9870618818       10.8779307748
  C        -2.7156635110       10.7023580877        9.6956963693
  C        -3.7454805360       10.4946206737        8.7990085982
  C        -4.7271430129        9.5380623077        9.1403876231
  C        -4.6363645643        8.7993046905       10.3327601315
  H        -5.4297735399        8.2027754702       10.5962729605
  H        -5.5330765492        9.2874260942        8.5023442268
  H        -3.7855533311       10.9389283740        7.7826337406
  H        -1.8037328562       11.3454381917        9.5879490582
  H        -1.9069532770       10.1560998083       11.5237519622
  C        -5.9393695822        9.7948645834       12.6893495666
  C        -6.9194726666       10.5613512850       13.2584332737
  H        -7.7068395919       11.0679177266       12.6535307132
  H        -5.9340965708        9.8703767230       11.5840891495
  C        -1.9197078013        7.0748969250       17.1314897069
  C        -2.8189706824        6.0424491349       17.4610027106
  C        -2.9376362145        5.6688442335       18.7723524993
  C        -2.2008090915        6.3185144369       19.7482372954
  C        -1.2928216544        7.3278341115       19.4604320241
  C        -1.2205185845        7.7189812630       18.1414834931
  H        -0.5022457682        8.4793816675       17.8376578423
  H        -0.5729255285        7.6439004638       20.1731858404
  H        -2.3140875830        5.9121588214       20.7483912166
  H        -3.6565253818        4.9554973334       19.1336695729
  H        -3.4372295049        5.6772858209       16.6540910310
  C         0.4491002011        6.3612439484       15.7195180789
  C         1.4543925467        5.6925338712       15.0944020385
  C         1.4672338916        5.5752591758       13.7203181989
  C         0.4349976804        6.0368661150       12.9071841868
  H         0.5938548228        5.8617806399       11.8488029244
  H         2.3154246938        5.1254603804       13.1837655760
  H         2.2847983770        5.3210658925       15.6363401362
  H         0.5106653901        6.4083960060       16.7875487205
  C        -1.7429505710        6.9469987679       11.3202826146
  C        -2.5671666770        5.8646905867       10.9088796829
  C        -2.5745104074        5.4542440577        9.5660283551
  C        -1.7551177200        6.1045385911        8.5929164287
  C        -0.8604319306        7.1303368570        9.0361324844
  C        -0.8543513733        7.5771302546       10.3612423969
  H        -0.1068682514        8.3183721674       10.7463918724
  H        -0.3706024634        7.6966973096        8.2557303019
  H        -1.9144011130        5.9745904730        7.5547924657
  H        -3.3391344406        4.7155092195        9.2343151719
  H        -3.2929151688        5.5307866044       11.6179321590
