140

  C        15.1742646094       -0.4190950949        0.8087201999
  C        16.2679913861        0.2913078448        1.3996232371
  C        17.3000184379        0.8881737719        0.6156456799
  C        18.4782742656        1.5912637313        1.1465668934
  C        19.4060421308        2.1933681046        0.3237800089
  C        16.1791803401        0.7605865964        2.8033770012
  C        15.4955909350        1.9672505340        3.1279976621
  C        15.5448392288        2.5265437293        4.3921264892
  C        16.3314060097        1.9839888386        5.3499818595
  C        16.8598379144        0.6899115893        5.1699813131
  C        16.7886641709        0.0887838609        3.8901874187
  H        18.7335988732        1.4619563309        2.1791371766
  H        20.3222471428        2.6705968358        0.7160032295
  H        15.0418243323        2.5218074374        2.2338654025
  H        15.1389056542        3.4911050595        4.6523645146
  H        16.4912971612        2.5040292915        6.3162607405
  H        17.4724877916        0.1395198454        5.8960249092
  H        17.1833673086       -0.9502432459        3.9803829051
  C        14.9698949893       -0.3386637927       -0.6760574662
  C        13.8978352460       -1.0252862549       -1.3487858741
  C        12.8285487300       -1.4855000446       -0.5186143759
  C        13.0153051464       -1.6190707979        0.9220145033
  C        14.1471815329       -1.0797574101        1.6167600903
  C        17.1034876654        1.0193571959       -0.8402527436
  C        15.9077814134        0.4656046163       -1.3939897122
  C        15.8600831047        0.6128902328       -2.8651743804
  C        15.1647893244        1.7117887977       -3.4738844231
  C        15.3162797676        1.9417095090       -4.8543169731
  C        16.1239468819        1.1130071249       -5.6367171558
  C        16.9608567175        0.1119323677       -5.0765098210
  C        16.7859188593       -0.1115689324       -3.7132718636
  H        17.3107829081       -0.9782900666       -3.3290133700
  H        17.4992264881       -0.5354503868       -5.7722079574
  H        16.2885300425        1.3616860420       -6.6993922096
  H        14.7565434920        2.6788722155       -5.4104444538
  H        14.4409776062        2.2237339633       -2.8214726998
  C        18.1159577871        1.6441242518       -1.6688201725
  C        19.1706989529        2.2432539573       -1.0662634345
  H        19.8850251958        2.7985751991       -1.6810120164
  H        17.9565834998        1.5719611590       -2.7315894549
  C        14.2373856089       -1.5131415146        3.0708205307
  C        14.9336470357       -2.6106500810        3.4941993260
  C        14.6841372521       -3.1476420570        4.8357501635
  C        13.8505924557       -2.4491012130        5.7270019130
  C        13.3437894659       -1.2021140660        5.3831590394
  C        13.5159493806       -0.7345978792        4.0517020877
  H        13.0842994778        0.2259122731        3.7727420712
  H        12.6296407372       -0.5635451606        5.9579860942
  H        13.7851796082       -2.7387800350        6.7168042940
  H        15.0902610192       -4.1863277410        5.0696688586
  H        15.5671116521       -3.2108341048        2.7914725213
  C        11.9145936456       -2.2474977520        1.6727829150
  C        10.7436932692       -2.6313569200        1.0688271635
  C        10.5639138345       -2.4954977602       -0.3229938998
  C        11.5932340163       -2.0018221434       -1.0875162274
  H        11.6133822786       -2.1836399611       -2.1745153257
  H         9.6105538993       -2.9562621509       -0.7286613502
  H         9.8817628136       -3.1086038927        1.6346974069
  H        12.1039714486       -2.4871470390        2.6984871188
  C        13.9284793782       -1.4188902358       -2.7588447987
  C        14.7776573064       -2.4600499802       -3.1969224297
  C        14.7484589409       -2.7575357709       -4.5556661956
  C        14.0160819975       -2.0389663562       -5.5159677043
  C        13.0736793366       -1.0176802097       -5.0712659021
  C        13.1383481025       -0.7328874647       -3.7131668998
  H        12.4935203125        0.0752230496       -3.3367112727
  H        12.4223170865       -0.5000029554       -5.7739435570
  H        14.1687151646       -2.2276870494       -6.5819527807
  H        15.3774073947       -3.6109095911       -4.8957350947
  H        15.4333663097       -3.0659240365       -2.5321562420
  C        11.3114544451        6.9209132304        0.9221074625
  C        10.3230397911        7.6802927740        1.6102929558
  C         9.2060208200        8.3139240447        0.9351979459
  C         8.2020492723        9.0381873740        1.5815279726
  C         7.0476324744        9.3249646442        0.8826267845
  C        10.3649303638        7.9673438702        3.1146183497
  C        11.1359322364        8.9934453361        3.6545004726
  C        10.8527180993        9.3866643587        4.9937511246
  C         9.9373883281        8.6720509333        5.8073051112
  C         9.1566637836        7.6678382623        5.2330247482
  C         9.3328101425        7.3647929419        3.8736533050
  H         8.2401235441        9.3647611162        2.5869108070
  H         6.1378252265        9.6943388513        1.3975791550
  H        11.7847091463        9.5956928593        2.9963537646
  H        11.4652370690       10.1929814973        5.4018092901
  H         9.8748225042        8.9237369306        6.8451408488
  H         8.4558148071        7.1413448757        5.9075920418
  H         8.6854988065        6.5629746358        3.5227315751
  C        11.1971763689        6.8522187486       -0.5499779872
  C        12.2569027860        6.2512327703       -1.3051445032
  C        13.3962906065        5.7469979538       -0.6167184925
  C        13.5177529318        5.8471200197        0.8253547918
  C        12.4355121881        6.3476564882        1.6037191115
  C         9.1156808010        8.0972286114       -0.4765412658
  C        10.1844967626        7.5685003479       -1.2578317020
  C        10.3804266972        8.0950071112       -2.6821133919
  C        11.2070533316        9.2200921245       -2.8635245942
  C        11.4632340077        9.6956598804       -4.1394314535
  C        10.8663154595        9.1698638383       -5.2964817564
  C         9.9450687647        8.1007227917       -5.1371170844
  C         9.8387820102        7.5380283462       -3.8267475026
  H         9.1692093178        6.6940061338       -3.5973575505
  H         9.3860350457        7.6866385707       -5.9738956614
  H        11.0525175136        9.5050789713       -6.3251002874
  H        12.1421273946       10.4647183599       -4.3231947731
  H        11.6541222949        9.5504884792       -1.9814524123
  C         7.9844608836        8.6656608056       -1.2386585453
  C         6.9708740853        9.1982681100       -0.5376453975
  H         6.0627149181        9.5868675967       -0.9998452403
  H         8.0765864224        8.9453353038       -2.3303948972
  C        12.4583088962        6.1710852753        3.0399654491
  C        11.7066343395        5.1554243125        3.5539627053
  C        11.8540599049        4.7493221869        4.9046562020
  C        12.6676607079        5.5274551323        5.7590513800
  C        13.4586347931        6.5288108912        5.2018175426
  C        13.2874480277        6.9320086600        3.8599839714
  H        13.8520408667        7.7752741292        3.4786239356
  H        14.0573629835        7.0906353619        5.9381429669
  H        12.7330306396        5.3657696147        6.8180388665
  H        11.3900760278        3.8640806620        5.3695979123
  H        10.9744249594        4.6705330007        2.8837450736
  C        14.6684802625        5.2979275184        1.4970913095
  C        15.8116693590        4.8577201308        0.7849652932
  C        15.7284976265        4.8247567628       -0.6484376561
  C        14.5185995372        5.2186144325       -1.2614416398
  H        14.5310245509        5.0756222844       -2.3732142987
  H        16.5201063994        4.4722310165       -1.3177660222
  H        16.6648196350        4.5274699052        1.3678109190
  H        14.6047251718        5.2694469616        2.6407023359
  C        12.2380632061        5.9076300296       -2.7705146211
  C        11.7278280553        4.6883722338       -3.1670378089
  C        11.7484228458        4.3200373069       -4.5367487791
  C        12.2533824922        5.1470518808       -5.5465117644
  C        12.9169596893        6.3866792984       -5.0982894868
  C        12.8637180854        6.7099843510       -3.7687113231
  H        13.3304658764        7.6923059625       -3.5128810822
  H        13.4216563256        6.9420525017       -5.8374511699
  H        12.3758880692        4.8143286732       -6.5549478568
  H        11.2459174959        3.3074431390       -4.7609918254
  H        11.2778203637        4.0314411921       -2.4744553002
