140

  C         3.0395834214        0.0937077377       14.6078086349
  C         3.9687081494        0.8228053242       15.2971840989
  C         5.1318761107        1.2817207098       14.6104306197
  C         6.2298572591        1.8910366382       15.3213688689
  C         7.3378471081        2.2871770483       14.5847811013
  C         3.6892123552        1.1937032671       16.8273364416
  C         2.6824170490        2.1293790728       17.1939444693
  C         2.5206780831        2.5099861743       18.5215181735
  C         3.4107158406        2.0106916506       19.5307894560
  C         4.3008608208        0.9662716273       19.1681126705
  C         4.4526413494        0.6087863206       17.8387008245
  H         6.1481097862        2.0244308322       16.4198353891
  H         8.2578071052        2.6088068269       15.0821700103
  H         2.0311512006        2.5995323462       16.4543415695
  H         1.7405558383        3.2441949131       18.6278596785
  H         3.2732994940        2.2886919432       20.5470907684
  H         5.0852233887        0.6006913731       19.8481976212
  H         5.2273321307       -0.1146816573       17.5937711833
  C         2.9732976844        0.1151808331       13.1748944768
  C         2.0438671945       -0.6865746941       12.4660686307
  C         0.8987233668       -1.1950664158       13.0809129746
  C         0.8250187912       -1.1731569997       14.5531839509
  C         1.8970623302       -0.5910571392       15.3260055178
  C         5.1481600176        1.2935582333       13.1577751180
  C         3.9423273446        0.8349698429       12.4972821811
  C         3.9173309545        1.2421870245       11.0353244022
  C         2.9791411387        2.2302661956       10.7805290912
  C         2.9984415009        2.7625248991        9.4649495857
  C         3.9250846118        2.2344202011        8.5202670436
  C         4.8611491851        1.2655293740        8.8765060198
  C         4.8192216522        0.7280167941       10.1530949408
  H         5.4685414561       -0.0309325664       10.5014001944
  H         5.6099619809        0.9452556858        8.1665371256
  H         3.9664272987        2.6559207945        7.5138036842
  H         2.2926445581        3.5091239301        9.1205551171
  H         2.1550949919        2.3095824770       11.5133267991
  C         6.2490675112        1.8577007136       12.4743253324
  C         7.3055866448        2.3958154600       13.1472691148
  H         8.1929473197        2.6617127493       12.6202795728
  H         6.2790635361        1.7519227742       11.4242778507
  C         1.8855260611       -0.9455039585       16.7604835180
  C         2.8469969119       -1.8678973122       17.2722230217
  C         2.7195422434       -2.2909418170       18.6048323314
  C         1.7146246259       -1.8702882517       19.4365765687
  C         0.8024569822       -0.9033929900       18.9597102274
  C         0.8825409925       -0.4582182196       17.6772333867
  H         0.2454617234        0.3593669072       17.3071523704
  H        -0.0240354314       -0.5213797460       19.5856029869
  H         1.6383581928       -2.2600405950       20.4097093411
  H         3.3658561730       -3.0629971464       18.9090490547
  H         3.6478848729       -2.2331713237       16.6477524374
  C        -0.3213765691       -1.8329267527       15.1634459494
  C        -1.3134172401       -2.3988897983       14.3266526620
  C        -1.1848411446       -2.5027898532       12.9156932174
  C        -0.0604580324       -2.0176408147       12.3235258133
  H         0.2009873516       -2.1467300150       11.2879490265
  H        -2.0003513571       -3.1276293268       12.4173338996
  H        -2.2904618397       -2.7328913443       14.7244293469
  H        -0.4447090133       -2.2032672758       16.1569277878
  C         2.0910949821       -0.9670600663       10.9750135934
  C         3.0074736126       -1.9259398716       10.4756909651
  C         3.1024997319       -2.2777988919        9.0979079241
  C         2.3268351294       -1.5198570134        8.1476578116
  C         1.4417425239       -0.5805095718        8.6784137688
  C         1.2957095873       -0.3473632441       10.0415929731
  H         0.5442525000        0.4249999081       10.3169522132
  H         0.7669376500       -0.0193940308        8.0310649895
  H         2.2916732953       -1.8390269478        7.1026077028
  H         3.8118009814       -3.0786027254        8.8227997762
  H         3.5895236781       -2.4838443802       11.1935835311
  C        -0.4200268106        7.2429705631       14.7853507037
  C        -1.4782645851        7.9138675235       15.5283128975
  C        -2.5753255971        8.4411370855       14.8086227188
  C        -3.6350155059        9.1582476832       15.4672215165
  C        -4.6062277506        9.8406906473       14.7906144210
  C        -1.2801364022        8.2367495072       16.9396616163
  C        -0.6357153994        9.4110016640       17.3245914067
  C        -0.6010584898        9.8014207137       18.6442239617
  C        -1.3751935577        9.1739230365       19.6148808566
  C        -2.0418954555        7.9609144016       19.2350483756
  C        -2.0255338487        7.5420821705       17.9115748263
  H        -3.4466096273        9.2963613199       16.5383404064
  H        -5.3168585493       10.4749735668       15.2782452746
  H         0.0813264723        9.9103586502       16.7011871570
  H         0.0236525220       10.6519934745       18.8943851747
  H        -1.2229504754        9.3779890862       20.6740761899
  H        -2.7723977243        7.4440606460       19.8488539744
  H        -2.6054322969        6.6307918864       17.7183798018
  C        -0.4426436066        7.2116728404       13.3078204609
  C         0.6558845826        6.6506411278       12.5880694973
  C         1.7783699399        6.1218450777       13.2597911095
  C         1.6905484281        5.9756829862       14.6786793710
  C         0.6431024172        6.5318346105       15.4019025496
  C        -2.7361882709        8.1413782417       13.3634107218
  C        -1.5874123267        7.7105792105       12.5995328531
  C        -1.5441838306        8.1092031034       11.1046485940
  C        -0.7023657760        9.1732478493       10.7587797592
  C        -0.8073246542        9.8335231597        9.4919965891
  C        -1.7617333590        9.3488761835        8.5418494384
  C        -2.5916067434        8.2808128341        8.8929481920
  C        -2.4277926703        7.6661777550       10.1275486408
  H        -3.0311437322        6.8172767504       10.3789990114
  H        -3.3116983929        7.8613605971        8.1360046897
  H        -1.8424080105        9.7244601902        7.4946384479
  H        -0.1507910924       10.6598910922        9.2373582464
  H         0.0302091779        9.5617959430       11.4726937259
  C        -3.9344785630        8.7166710136       12.7387415930
  C        -4.7824841796        9.6091610127       13.3277615734
  H        -5.5671816796       10.0549311379       12.7719832960
  H        -4.0669499405        8.5166613023       11.6507944834
  C         0.5612005364        6.2204134551       16.9329078004
  C        -0.1413205539        5.0729147169       17.3003619346
  C        -0.2856535845        4.7813555236       18.6741213548
  C         0.4380338023        5.5275492385       19.6498538930
  C         1.2456112103        6.5504829921       19.2303746555
  C         1.3002730145        6.9582496782       17.8995206973
  H         1.9606567774        7.7113430320       17.5477214516
  H         1.8294651455        7.2122269635       19.9042178472
  H         0.3099924505        5.3443075453       20.7140175076
  H        -0.9038600344        3.9237404457       18.8496889887
  H        -0.7121782219        4.4971958632       16.5518685500
  C         2.6918045509        5.1774141943       15.3109684782
  C         3.6362801223        4.5129746360       14.6288423541
  C         3.8073976241        4.6595984198       13.1937027225
  C         2.8188108968        5.4091013794       12.5683426036
  H         2.7809896832        5.3579743292       11.4767017734
  H         4.5839698085        4.0932642427       12.6230059147
  H         4.2518325536        3.7569189404       15.1530783661
  H         2.6173286351        4.9704385769       16.3835880182
  C         0.5970055502        6.4310940608       11.0792176300
  C        -0.3209570030        5.4012940034       10.6585177034
  C        -0.3531138267        4.9721410088        9.3615864524
  C         0.4117079891        5.6075159839        8.4012681497
  C         1.2254398056        6.6827015806        8.7855110502
  C         1.3661247704        7.1178574817       10.1298360804
  H         2.0602894202        7.9221820111       10.3907340645
  H         1.8254797101        7.1831518186        8.0010311027
  H         0.3041153512        5.4188693963        7.3127867994
  H        -1.0492035477        4.1613833641        9.0682058124
  H        -0.8860456855        4.9621985199       11.4901590828
