140

  C         5.5587607874       -0.3757020000       16.0631006500
  C         6.4975515927        0.4490450857       16.7851616650
  C         7.6398872742        1.0203508063       16.1412833141
  C         8.6595841802        1.6807460654       16.9127221397
  C         9.7265586320        2.2790527557       16.2642603775
  C         6.3784158024        0.8225538669       18.2521531124
  C         5.6499313344        1.9246015256       18.6716768877
  C         5.7748749772        2.4631210118       19.9784876586
  C         6.5168987257        1.8221118851       20.9336792691
  C         7.0821649544        0.5736494549       20.5366578496
  C         7.0271636917        0.0828250105       19.2211359086
  H         8.6036920195        1.7068790825       18.0043076561
  H        10.5184664623        2.7628249393       16.8759700360
  H         4.9293900839        2.4693866942       17.9964976750
  H         5.3294798528        3.4248007046       20.2254634690
  H         6.6266986372        2.2339599344       21.9542982874
  H         7.6101497991       -0.0278849359       21.2632798837
  H         7.5046934308       -0.8617345843       18.9564531203
  C         5.6591536199       -0.4064005285       14.5663145895
  C         4.6706487153       -1.1691932932       13.8220895040
  C         3.5706067580       -1.7080077590       14.5141782754
  C         3.4265380459       -1.6854804766       15.9438069890
  C         4.4904927729       -1.1001836303       16.6707790433
  C         7.7721743519        0.9220707131       14.6910602885
  C         6.6529320862        0.3660021710       13.9511674016
  C         6.6008762394        0.7053194418       12.4599278640
  C         6.0044121317        1.9437898898       12.1757139708
  C         6.1707266486        2.4657331486       10.8724816406
  C         6.9524426286        1.8103328707        9.9164499380
  C         7.6003655787        0.5642932106       10.2396250640
  C         7.3566244677        0.0302389977       11.4831183105
  H         7.6812361099       -1.0191796448       11.7511417431
  H         8.1526185312        0.0749972505        9.4130664054
  H         7.1071730426        2.1830237938        8.8803182985
  H         5.6297847609        3.4142738823       10.6721311646
  H         5.5256378524        2.6740380850       12.8554818309
  C         8.8743208827        1.5637217889       14.0744760963
  C         9.8424077299        2.2559555154       14.7943601584
  H        10.7690868354        2.5262503643       14.2705339733
  H         9.0742598967        1.3852235055       13.0266919704
  C         4.4590648987       -1.5024952707       18.1706186518
  C         5.2792172573       -2.5958943862       18.6294631803
  C         5.1221089746       -2.9927766438       19.9326603005
  C         4.3810572289       -2.2351542552       20.9052950846
  C         3.6714364487       -1.1009390671       20.4501193107
  C         3.7394761773       -0.7973068039       19.1107559068
  H         3.2618260741        0.0907424137       18.7312961887
  H         3.0668750215       -0.5196415229       21.1628627564
  H         4.5130767058       -2.4507096458       21.9979412742
  H         5.7757112607       -3.7362895057       20.3603693649
  H         5.9756545888       -3.0094929516       17.9228663176
  C         2.2706414877       -2.2339678515       16.5505357259
  C         1.2924309473       -2.7512728371       15.7752116598
  C         1.5085948259       -2.9367038484       14.3586076612
  C         2.6087226222       -2.3861758938       13.7272332833
  H         2.7311522776       -2.6158662820       12.6657303731
  H         0.6730508537       -3.4080646490       13.7745160547
  H         0.3325508770       -2.9231199343       16.1871294593
  H         2.0512937363       -2.1409190957       17.6074905821
  C         4.7377762587       -1.3385280905       12.3293474995
  C         5.4881646935       -2.4810504970       11.8140919566
  C         5.4485173242       -2.7316618361       10.4234732779
  C         4.6486570288       -1.9724298175        9.6124804429
  C         4.0474259774       -0.7975891339       10.0488692007
  C         4.0295242552       -0.5359106918       11.4287309170
  H         3.6509580208        0.4563261307       11.7224372468
  H         3.3932499832       -0.1772737616        9.4875713475
  H         4.5138851298       -2.2525677652        8.6100668074
  H         5.9946684333       -3.6058139038       10.1440679978
  H         6.1623168954       -2.9765302230       12.5783676108
  C         2.0606353076        6.9046932451       16.1290178228
  C         1.0317552944        7.5152415353       16.7690063767
  C        -0.1231814864        7.9959598568       16.0872770848
  C        -1.1602303801        8.6221841347       16.7416193761
  C        -2.2329845371        9.1890143566       16.0491500183
  C         1.1009018330        7.7429634581       18.2634201173
  C         1.8281875778        8.9182024969       18.7217114858
  C         1.7513764330        9.2978834752       20.0243737525
  C         0.8610965720        8.6376848493       20.9309269568
  C         0.0495711163        7.5865335894       20.4841960122
  C         0.2246816809        7.1528788699       19.1528888220
  H        -1.1900079691        8.6505528383       17.8475081817
  H        -2.9834517746        9.6721972786       16.6268523446
  H         2.3920853960        9.3345664207       17.9260262043
  H         2.4358640604       10.0832390534       20.3812209624
  H         0.8239767022        8.8770988914       21.9943885035
  H        -0.7380276425        7.2184533594       21.1258678889
  H        -0.3486193043        6.2913103296       18.8138483551
  C         2.1050392135        6.8490374274       14.6163987595
  C         3.0811930279        6.1293248854       13.9922258012
  C         4.1900503550        5.6252347513       14.7209677136
  C         4.1221227996        5.6013553500       16.1573345579
  C         3.0644906236        6.2686484748       16.8764096077
  C        -0.0679868835        8.0887232765       14.6922687003
  C         1.1043048055        7.6094219475       13.9962401917
  C         1.2314540504        7.9964604355       12.5830274136
  C         1.9639075652        9.0858471871       12.1203746131
  C         2.0343614553        9.4342230155       10.7729404330
  C         1.3936878825        8.6597308520        9.7968231273
  C         0.7137487845        7.5245600324       10.2271332212
  C         0.5945916879        7.2867432863       11.5596272334
  H         0.0086839719        6.3831998905       11.9200249798
  H         0.2146702181        6.8398929961        9.6012343336
  H         1.3724275372        8.9013596195        8.7544379555
  H         2.6353304064       10.2666948745       10.5379437365
  H         2.6213260003        9.5450354720       12.8358576135
  C        -1.0890560159        8.8483422675       13.9575508042
  C        -2.1107252756        9.4060547338       14.7002759232
  H        -2.8575430592        9.9728626360       14.1063140631
  H        -1.0009894167        8.9943027612       12.8830248262
  C         2.9201270110        5.9627515494       18.3170008284
  C         2.2717791050        4.7439330654       18.5924109317
  C         2.1989970656        4.2047820782       19.9061779143
  C         2.7786114229        4.8879266096       20.9570232940
  C         3.3985883224        6.1053139847       20.6722288195
  C         3.5415393760        6.5902740698       19.3991627983
  H         4.1776116492        7.4758794020       19.2433147885
  H         3.9046755976        6.7483451476       21.3912349843
  H         2.7464393395        4.5074451022       22.0138960975
  H         1.8015488650        3.2047838656       20.0323439110
  H         1.8836963493        4.1613668992       17.8024884349
  C         5.1932144683        5.0505755189       16.8787917913
  C         6.3121807913        4.5707224126       16.3032596659
  C         6.3607614300        4.3949682458       14.8446660247
  C         5.3843554325        5.0747844459       14.1349258726
  H         5.5262942305        5.2193395677       13.0441254039
  H         7.1454074540        3.9397322425       14.2815721389
  H         7.1144380888        4.1959513143       16.9100263756
  H         5.1051668369        5.1063665872       17.9626590514
  C         3.1075374072        5.8517040301       12.4932793241
  C         2.6917115174        4.5851648374       12.0830255458
  C         2.8851819705        4.2564495669       10.7307742959
  C         3.5051967007        5.0332016804        9.7809820321
  C         3.9533199273        6.3591283180       10.1828710328
  C         3.7782655529        6.7132659698       11.5709926028
  H         4.2180429184        7.6358701483       11.9390649659
  H         4.4555238624        6.9435124221        9.4441671717
  H         3.6425958581        4.6926851663        8.7580578509
  H         2.4987422718        3.2884037111       10.3876221126
  H         2.2519564303        3.9237907830       12.8136419057
