140

  C         3.4578929730        0.3790350857       14.2410075173
  C         4.4471109879        1.0490770621       15.0320641263
  C         5.6065425688        1.5722352864       14.3908583039
  C         6.6737380441        2.2558952305       15.1230360055
  C         7.6239672521        2.8831742863       14.4051758506
  C         4.2348721979        1.3897201189       16.4666724559
  C         3.4987829566        2.5463981378       16.8435289192
  C         3.4654464799        2.9296467045       18.1711354806
  C         4.0560748168        2.0758694789       19.1519980587
  C         4.7945454137        0.9324762682       18.7732051089
  C         4.9419058350        0.6703035866       17.4030109377
  H         6.5164691528        2.4076695822       16.1760518109
  H         8.2863230066        3.5524946799       14.9364007029
  H         2.9754683914        3.2210917080       16.1585194344
  H         2.8792685663        3.8496881464       18.4200171217
  H         3.9111425001        2.2974378328       20.2045950286
  H         5.4825303489        0.5300959120       19.5065283830
  H         5.5101528357       -0.1572923329       17.1353419654
  C         3.5483892324        0.2014232175       12.8062880870
  C         2.5999135933       -0.6479879035       12.1283722191
  C         1.4625225621       -1.1289527236       12.7795021245
  C         1.3603652495       -1.0534496232       14.2756977650
  C         2.4113220403       -0.3436075733       14.9473378967
  C         5.6500822598        1.4993347925       12.9003293615
  C         4.6272111595        0.8206228842       12.1399869156
  C         4.5559392950        1.2516900279       10.6714448462
  C         3.5932639020        2.1280915439       10.2776705675
  C         3.6395725337        2.6224148387        8.9491865011
  C         4.5105294860        2.1797286407        7.9177858704
  C         5.3932826542        1.1789731256        8.3648226076
  C         5.4887175754        0.7432263704        9.7263648943
  H         6.1072869118       -0.0941802107        9.9585189262
  H         6.1916178803        0.9720973534        7.6110405615
  H         4.5051278658        2.6783644014        6.9302653267
  H         2.9356747076        3.4318990761        8.6950744936
  H         2.7817822137        2.4275633111       10.9488633625
  C         6.7583510937        2.1917544689       12.2827187812
  C         7.8025743122        2.7433898672       12.9694850664
  H         8.5521586400        3.3086445091       12.4529803093
  H         6.6351569226        2.3640070163       11.2104035141
  C         2.5055591963       -0.6620657026       16.4728242541
  C         3.2634983512       -1.7553518446       16.9202019525
  C         3.0996128844       -2.3196224386       18.2203339087
  C         2.1441664928       -1.8380876218       19.1123610118
  C         1.4686894273       -0.6845329029       18.7381675686
  C         1.5453909432       -0.1780244879       17.4598155522
  H         0.8916198124        0.6680416632       17.3078198383
  H         0.7757670174       -0.1635569940       19.4733547043
  H         1.9415676881       -2.2799806588       20.0430666690
  H         3.5967122653       -3.2304540780       18.4816446094
  H         3.9620819755       -2.1918801151       16.2028075708
  C         0.3451883970       -1.7865318797       14.9435110532
  C        -0.7222077271       -2.2991187207       14.2042492659
  C        -0.7233814097       -2.2081833759       12.7714407820
  C         0.3993570224       -1.8198675137       12.1019248346
  H         0.4896370693       -1.8190600167       11.0400484533
  H        -1.5804023447       -2.5826814088       12.1056332207
  H        -1.5792804436       -2.7110546445       14.6877042266
  H         0.3040439138       -1.8087006601       15.9949985005
  C         2.7668241424       -1.0506143595       10.6934064535
  C         3.7927831077       -1.9633788122       10.4282662298
  C         4.0866570789       -2.4887154117        9.2145125422
  C         3.3036310613       -2.1296858124        8.0610497425
  C         2.2623869128       -1.2518942888        8.3591432782
  C         1.9646077950       -0.7280883271        9.5998907340
  H         1.1744549308        0.0121857231        9.5863560450
  H         1.5756136544       -0.9633027814        7.4710040621
  H         3.4601934204       -2.5575905364        7.1007967825
  H         4.9201442562       -3.1047329581        9.1080904054
  H         4.4267551092       -2.2210518570       11.2693580433
  C        -0.1582306704        7.2405626434       14.0089905552
  C        -1.1653281715        8.0158921366       14.6861108358
  C        -2.1739937889        8.6311740346       13.8971232010
  C        -3.3046300343        9.2068247989       14.5243658321
  C        -4.3248907404        9.7331206981       13.8208137929
  C        -0.9036679361        8.4156729833       16.0563724401
  C         0.1414483441        9.2903340372       16.4035433239
  C         0.2817363822        9.8450463135       17.7132845065
  C        -0.5834512814        9.4391922541       18.7543862763
  C        -1.5466431796        8.4447234430       18.4233239536
  C        -1.8066766552        8.0726488931       17.0975362151
  H        -3.4049049174        9.0292321222       15.5983794093
  H        -5.2453407633       10.0412692693       14.3348465035
  H         0.8558070361        9.5964995796       15.6728235115
  H         1.0377461596       10.5825316803       17.8916993277
  H        -0.4572823958        9.7623661203       19.7801177438
  H        -2.0785877855        7.8809603158       19.1865171154
  H        -2.6184674578        7.3752550941       16.8611203670
  C        -0.0094782732        7.3145207864       12.5502815984
  C         1.0088407328        6.6396352190       11.8435096051
  C         2.0065447928        5.9727307165       12.5753099279
  C         1.9376294001        5.9186682754       13.9778639879
  C         0.8322523109        6.5406873935       14.6951437131
  C        -1.9965340452        8.7889168884       12.5007979280
  C        -0.9196820769        8.1689047663       11.8756150558
  C        -0.9108779141        8.4321856032       10.3449592319
  C        -0.1329121610        9.4068069265        9.7051937239
  C        -0.2259241956        9.5210490300        8.2584223532
  C        -1.1815321402        8.7426919193        7.5773464806
  C        -1.8837816201        7.7360100112        8.2459229241
  C        -1.7944424068        7.6049908926        9.6234089269
  H        -2.4222766069        6.8804199017       10.1365484751
  H        -2.5915293409        7.1545904634        7.6750082507
  H        -1.3419557634        8.8520018419        6.5529465519
  H         0.4219031038       10.3222505403        7.8518791469
  H         0.7328823923        9.8413773299       10.2156650144
  C        -2.9920877769        9.6824142147       11.8962265842
  C        -4.1425639407       10.1134435791       12.4458979807
  H        -4.8115656635       10.8611123889       12.0213353344
  H        -2.9289217922        9.8373943588       10.8234654677
  C         0.7064165460        6.1634007381       16.2019125403
  C        -0.0959936682        5.0622702361       16.5353688488
  C        -0.1802144957        4.5669166347       17.7901576648
  C         0.4650191534        5.2847401104       18.8346481350
  C         1.1947264691        6.4205465085       18.5123676120
  C         1.3648587399        6.8587648264       17.2268495608
  H         1.9498518329        7.7707952590       17.0014963856
  H         1.6757301577        7.0108057226       19.2876736729
  H         0.3591758539        4.9890258708       19.8757472574
  H        -0.7074835972        3.6311238182       18.0268233666
  H        -0.5989272321        4.5211004369       15.7465859913
  C         2.9775715652        5.2096142178       14.6966808096
  C         3.9661151189        4.5405972753       14.0589385253
  C         4.0267865510        4.5395315189       12.6276276284
  C         3.0368461808        5.2224686767       11.9174795918
  H         2.9795035944        5.0729150997       10.8496102975
  H         4.7449601310        4.0712196129       11.9886504332
  H         4.7795016957        4.1684167555       14.6625307412
  H         3.0541591129        5.2090798317       15.7419303607
  C         0.9076034317        6.3527198728       10.3330810926
  C         0.0910704034        5.3026162487        9.8512885392
  C         0.2371534862        4.8438555793        8.5399202694
  C         1.1873418647        5.4384498300        7.6808808472
  C         2.0149868008        6.4195457910        8.1991196800
  C         1.9078352739        6.8680707547        9.5235098028
  H         2.6422352724        7.5384791224       10.0058732741
  H         2.7440849263        6.9402122953        7.5815395587
  H         1.2350564335        5.2301219192        6.5999493630
  H        -0.4787648159        4.1164048994        8.1840814868
  H        -0.6862413161        4.8669048454       10.4898239810
