140

  C         4.1311526387       -1.1230618624       13.8543255778
  C         5.0819128019       -0.2437741700       14.4882384242
  C         6.2493132621        0.1600835342       13.7627060198
  C         7.4083880146        0.7015109350       14.3389433903
  C         8.4786718153        1.1918552011       13.6017227975
  C         5.0278857158        0.0867827164       15.9737698646
  C         4.2096579085        1.1354582198       16.3221321240
  C         4.1085701289        1.4640072608       17.6642783486
  C         4.9181525361        0.8939739226       18.5854050361
  C         5.7310495110       -0.2189590253       18.2824614870
  C         5.7845226424       -0.6010180708       16.9010624188
  H         7.5328044746        0.6935740439       15.4319121328
  H         9.3619756240        1.4833383607       14.1403341920
  H         3.7004180291        1.7459152553       15.5709204589
  H         3.4477338991        2.2969539143       17.8508863442
  H         4.8060880776        1.3071560170       19.6331830975
  H         6.3928244896       -0.8184272030       18.9546789036
  H         6.4392278941       -1.3558325785       16.5322633021
  C         4.1961711563       -1.1634190358       12.4108376385
  C         3.0960096037       -1.8534435013       11.7421995429
  C         2.0241577087       -2.3915884581       12.5111077084
  C         2.0089648027       -2.3826318028       13.9662376124
  C         3.0643546748       -1.8326201568       14.6004132209
  C         6.1547089610        0.2142384428       12.2942258107
  C         5.0826781017       -0.3969863972       11.6468856786
  C         5.0323830358        0.0044394698       10.2257439908
  C         4.2857529347        1.1666226868        9.8628747703
  C         4.3188982024        1.6411246389        8.4699551551
  C         5.2281539657        0.9809883319        7.4976515472
  C         5.8717132061       -0.1551732107        7.9800722434
  C         5.7702220889       -0.6425012785        9.3022861714
  H         6.2717145082       -1.5609885776        9.5264965556
  H         6.5300730825       -0.7760361855        7.3687862257
  H         5.2991882145        1.2455790690        6.4650856426
  H         3.8705379936        2.5901563025        8.0706128825
  H         3.6856389163        1.5777440285       10.6419844356
  C         7.2322870394        0.8986257827       11.5972291742
  C         8.4114020395        1.2990096325       12.2074159500
  H         9.2860376854        1.5320982965       11.6123969214
  H         7.1099728459        1.0862260355       10.5561512329
  C         3.2246195072       -2.1605153139       16.0966029443
  C         4.1458544235       -3.1834534317       16.4146208781
  C         4.2751012269       -3.6438682494       17.7286371443
  C         3.4254264984       -3.1942249294       18.7443932816
  C         2.5116811579       -2.1591084539       18.4495011420
  C         2.4250130292       -1.6177763205       17.1226580084
  H         1.7594610618       -0.7600653959       16.7765740170
  H         1.8094131244       -1.8082955549       19.2318265312
  H         3.5174500603       -3.7349841202       19.6524124925
  H         5.0078931711       -4.4061404125       17.9308219786
  H         4.7478833457       -3.6219817561       15.6811501323
  C         1.1213172399       -3.3126629352       14.6710238302
  C         0.0703002054       -3.9328171744       14.0766827916
  C         0.0538674572       -3.8700187557       12.6252432725
  C         0.9562672077       -3.1414639556       11.8777989554
  H         0.9171976316       -3.1301560981       10.7828862126
  H        -0.7708341262       -4.3745287464       12.0442049114
  H        -0.6358883856       -4.6147312343       14.5545869940
  H         1.2143315850       -3.3714258125       15.7595787198
  C         3.1370013950       -2.2544373413       10.2385351446
  C         3.9858940899       -3.2704756576        9.8531317072
  C         3.8970832915       -3.7567850166        8.5396795911
  C         3.0232698183       -3.1095153896        7.6539656505
  C         2.2987095005       -1.9664616505        8.0438713177
  C         2.2807081054       -1.5519512612        9.3661897976
  H         1.6678180157       -0.7149988668        9.7487410705
  H         1.5968696298       -1.5527522185        7.2398480372
  H         2.8520178061       -3.4324208969        6.6239770484
  H         4.5879243469       -4.5765136993        8.3126901703
  H         4.7671059312       -3.6851713186       10.5009408535
  C         0.7004959409        6.2734760265       13.9561181117
  C        -0.4103623904        6.8336755799       14.6738054080
  C        -1.5868676711        7.2705486021       13.9315152458
  C        -2.6805257785        7.9245469339       14.6383123248
  C        -3.6376867015        8.5888186985       13.9186702618
  C        -0.3368291197        7.2481879273       16.1118169212
  C         0.6771990145        8.1080786151       16.5792692544
  C         0.8722664625        8.4445847944       17.9331226912
  C         0.0243503577        7.9167759395       18.8843466607
  C        -1.0131526037        7.0290013605       18.5057932527
  C        -1.1996463398        6.6657390776       17.1366150903
  H        -2.6337726087        7.9312455827       15.7527377382
  H        -4.3422406498        9.2126728385       14.4399125009
  H         1.3643581334        8.5262015699       15.8440069717
  H         1.6939911801        9.1193354537       18.1058686639
  H         0.0876514241        8.2471144277       19.9351456010
  H        -1.7308577122        6.5903063602       19.2412000770
  H        -1.9635097660        5.9310846300       16.9608174204
  C         0.7276946718        6.3664246557       12.4881509559
  C         1.7710945452        5.6337799721       11.7451657600
  C         2.8920005595        5.1014391151       12.4313317290
  C         2.9038227687        5.1327565912       13.8677423232
  C         1.7814993360        5.5953330498       14.6340232922
  C        -1.5210799526        7.3326448788       12.4893461933
  C        -0.3790439745        7.0063272184       11.7825429008
  C        -0.1157050790        7.3473548315       10.4069002988
  C         0.9481855321        8.2053033023       10.0611661008
  C         1.2410977625        8.5489387265        8.7484195194
  C         0.3072160824        8.2746814138        7.7472177870
  C        -0.8436613555        7.5269739553        8.1016587903
  C        -0.9798424083        6.9877225879        9.3643842505
  H        -1.8465712143        6.3795456565        9.6400963852
  H        -1.6373084021        7.3317438346        7.3321349681
  H         0.5460824570        8.5099257492        6.7164665144
  H         2.0926646772        9.0888543627        8.4095885065
  H         1.6719647259        8.5150295279       10.8101340176
  C        -2.5143778480        8.1285364882       11.8729282203
  C        -3.6232764255        8.6059267286       12.5235612876
  H        -4.4042473822        9.2439516056       11.9512650317
  H        -2.4237691796        8.2751459152       10.7690251437
  C         1.6824994321        5.2297605612       16.1072605756
  C         0.8649557297        4.1395316654       16.4266974003
  C         0.9249515887        3.6213765853       17.6954911876
  C         1.8588910340        4.0953826509       18.6746301011
  C         2.5733803692        5.2128211383       18.3492590351
  C         2.4547575139        5.7877347842       17.0753965738
  H         3.1394555929        6.5869812623       16.8925441269
  H         3.2597010817        5.6979288536       19.0068579898
  H         2.0254515889        3.6352806983       19.6939910023
  H         0.3109945153        2.7268391752       17.7912178154
  H         0.2459897943        3.6758856000       15.5939184414
  C         3.9689081529        4.4932847767       14.5246114893
  C         4.9570140989        3.8134024045       13.8796968427
  C         5.0297447355        3.8327911701       12.4301378843
  C         4.0459042195        4.4979580085       11.7524286450
  H         4.0166521016        4.6677523128       10.7056100032
  H         5.8272970683        3.3005196658       11.9294123592
  H         5.6220116758        3.2241518299       14.5138676345
  H         4.0986828673        4.4823155110       15.5949050612
  C         1.7330427661        5.1563374974       10.3033970335
  C         0.7589171555        4.2142240236        9.8786854660
  C         0.7642004068        3.8376971934        8.5676620967
  C         1.6634645955        4.3348475520        7.6057774023
  C         2.5258536257        5.3341077109        8.0031415558
  C         2.6245678578        5.7019557275        9.3320298864
  H         3.4145642609        6.3674038346        9.5903941837
  H         3.2744345493        5.7474561706        7.3148493389
  H         1.6489520558        3.9599742580        6.5096975259
  H        -0.0408156520        3.1730172484        8.2195546998
  H         0.0925805047        3.7622010246       10.6464255015
