140

  C         4.1280594799        0.1107629912       15.3966560741
  C         5.1199482421        0.8379467516       16.1509215512
  C         6.2509798143        1.3903487031       15.4609892131
  C         7.3872635116        1.9531987936       16.2135436406
  C         8.4393844472        2.4994147661       15.5354560919
  C         4.9794299852        1.0369753071       17.6175599920
  C         4.2612112725        2.2190050491       18.0865393143
  C         4.2444367831        2.5801557987       19.4171023266
  C         5.0200359924        1.8492395906       20.4107532964
  C         5.7338875074        0.7288826882       19.9430120989
  C         5.6685157595        0.3404248939       18.5661356129
  H         7.3256185308        2.0685855021       17.2914872725
  H         9.2985411161        2.9579206787       15.9723712853
  H         3.7410076506        2.8717869045       17.3908685517
  H         3.6881414896        3.4185867866       19.8203096080
  H         5.0903775052        2.1800184635       21.4733575273
  H         6.3659789846        0.0577819542       20.5927312164
  H         6.2673997129       -0.5199589447       18.2216912307
  C         4.2429498258        0.0895713083       13.9459086880
  C         3.2664603294       -0.6702917438       13.2497231050
  C         2.1367230732       -1.2472984400       13.8909381937
  C         2.1550334475       -1.3493211982       15.3391520139
  C         3.1564692042       -0.6255995806       16.0612261633
  C         6.2322180434        1.4368806127       14.0193279345
  C         5.1928727730        0.9021203932       13.2552765128
  C         5.1089364299        1.1564969925       11.8081666068
  C         4.3273649626        2.1569999374       11.2337247116
  C         4.4402030913        2.6403323938        9.9150255888
  C         5.4297118892        2.1062533296        9.1075473067
  C         6.0995820680        0.9686807399        9.5840317631
  C         5.9630869958        0.4846555838       10.8952195901
  H         6.4510008513       -0.4456457922       11.1534982144
  H         6.9088941348        0.5585192098        8.8987080692
  H         5.6528476901        2.3857390968        8.0806074478
  H         3.9053733598        3.5350161422        9.6563147996
  H         3.6360002827        2.6874554886       11.8650070277
  C         7.2216484866        2.2384788248       13.3780400116
  C         8.3523357050        2.6452179148       14.1022793537
  H         9.1249267758        3.2353518567       13.6159256492
  H         7.0879642455        2.4357799634       12.3129104264
  C         3.1586550292       -1.0546506075       17.4793175942
  C         3.7667122957       -2.3295149649       17.7769397997
  C         3.5922419000       -2.9516031912       19.0116952424
  C         2.9879521577       -2.2564469424       20.0658589077
  C         2.4674154226       -0.9505721225       19.8242887923
  C         2.4149651050       -0.4303470518       18.5365068682
  H         1.9094927547        0.5075381665       18.3356118897
  H         2.0490645335       -0.4318685276       20.7002898714
  H         2.8683798816       -2.6405431160       21.0800336577
  H         3.9543405588       -4.0032262379       19.3017931289
  H         4.2022592315       -2.8165247875       16.9153432038
  C         1.0622607742       -2.0217114176       16.0187300871
  C         0.0048183924       -2.5075308404       15.3142174017
  C         0.0150808221       -2.6076388254       13.8961997906
  C         1.0874615076       -2.0638530740       13.2089992070
  H         1.0723027418       -2.3000215803       12.1471907133
  H        -0.6447695665       -3.2827883071       13.3644199390
  H        -0.7563004440       -2.9967161393       15.8397500816
  H         1.1692200304       -2.0723594584       17.1073633754
  C         3.1651703721       -0.8382910317       11.7751409776
  C         4.0099680965       -1.7944724490       11.1767405866
  C         3.8609443966       -2.1229008863        9.8290941112
  C         2.9026601125       -1.4896972614        9.0054167199
  C         2.1099089366       -0.5406785959        9.5964455739
  C         2.2998801681       -0.1781743316       10.9497042984
  H         1.6285478763        0.6031867435       11.2775138467
  H         1.4587340167        0.1161824302        9.0442920181
  H         2.9499347524       -1.6568559550        7.9237322919
  H         4.5722073428       -2.8356666170        9.3998365802
  H         4.7186705506       -2.3856002533       11.7164662512
  C         0.5607913048        7.2569414687       15.3187417197
  C        -0.5558087578        7.9062433985       15.8640131197
  C        -1.6087450594        8.4279995858       15.0369842749
  C        -2.7994670316        8.9327755321       15.6266009054
  C        -3.7091628862        9.7186740384       14.9624770970
  C        -0.6963257017        8.2222360297       17.3691881507
  C        -0.1430205930        9.4056715583       17.8783604959
  C        -0.3370535684        9.6654784790       19.3014466588
  C        -1.2162664884        8.8699346074       20.0325840581
  C        -1.8673542079        7.7911887095       19.4137203895
  C        -1.6832486432        7.4508230337       18.1118774339
  H        -3.0407348372        8.7797368991       16.6952600673
  H        -4.5805252534       10.1256585194       15.4408496466
  H         0.5490394200        9.9905523624       17.3188241694
  H         0.1411256536       10.5033507899       19.7729196525
  H        -1.2499006507        8.8856690340       21.1155845514
  H        -2.6317193028        7.2968312889       20.0036790234
  H        -2.1730595286        6.6235254167       17.6067955261
  C         0.6986160139        7.3259680428       13.8811216211
  C         1.6144250590        6.4146737568       13.3125216676
  C         2.6814594661        5.8619950378       14.0525437721
  C         2.6396604105        5.9913913506       15.5006926035
  C         1.5500412445        6.6413839980       16.1177583211
  C        -1.4877695212        8.5700070435       13.6525822865
  C        -0.2400453035        8.0705657495       13.1161405768
  C         0.0045837940        8.3899145690       11.6690451810
  C         1.1871128246        9.1035536953       11.3438008323
  C         1.4297577903        9.5124088925        9.9960784628
  C         0.4768656411        9.2955817506        9.0234734894
  C        -0.7309845593        8.6142791438        9.3322384119
  C        -0.9289336579        8.1704042030       10.6474750491
  H        -1.8527052269        7.6079747448       10.7807841965
  H        -1.4556246094        8.4712072525        8.5561539797
  H         0.6089887679        9.7707606358        8.0770663545
  H         2.2762770136       10.0915328602        9.6611344737
  H         1.9539444008        9.4051443933       12.0784854854
  C        -2.4254642423        9.3441030425       12.8998098639
  C        -3.4792891048        9.9712724656       13.5785262188
  H        -4.2845292080       10.4520109290       13.0573039471
  H        -2.3738483581        9.4683123258       11.8419849803
  C         1.4940931301        6.2594392521       17.5821133770
  C         0.8647505035        5.0513100789       17.9207424107
  C         1.0990607733        4.4309763249       19.1758750224
  C         1.9271367921        5.1221764415       20.0645824315
  C         2.5068627472        6.3851858821       19.7539548809
  C         2.2620199687        6.9652648200       18.5011208804
  H         2.6994149381        7.9792934406       18.3038506111
  H         2.9820273901        6.9494469597       20.5104448595
  H         2.2247563384        4.6408648587       21.0031821909
  H         0.6948539008        3.4363614629       19.3530238882
  H         0.3279559884        4.4840607283       17.1460768362
  C         3.6933445874        5.3258871855       16.2166710574
  C         4.8145518952        4.8308379862       15.5696971086
  C         4.9075687912        4.8162389881       14.1553579978
  C         3.8296558614        5.2298504075       13.3808641879
  H         3.8101948623        5.0949340419       12.3188405454
  H         5.7685915131        4.4614901751       13.6468596025
  H         5.6331329012        4.4237567593       16.1972597341
  H         3.7299560796        5.2557880007       17.3219657086
  C         1.3999089954        5.8613685788       11.8977755873
  C         0.2556007012        5.0718230179       11.5618514195
  C        -0.0193955454        4.7341131520       10.2817003141
  C         0.8290436292        5.1867703844        9.2441844276
  C         2.0402991654        5.9705946075        9.5624957430
  C         2.2874974149        6.3062531447       10.8953020353
  H         3.1138337303        6.9369723619       11.1505217990
  H         2.5802036845        6.2996410263        8.7326219553
  H         0.6825386583        4.8481602284        8.2527164466
  H        -0.8926324402        4.0951195214       10.1333481525
  H        -0.4680715052        4.7583237552       12.3176744803
