140

  C        14.7721621019       -0.2782046567        0.7705729649
  C        15.7871691413        0.4431474725        1.4654416598
  C        16.8866509811        0.9580727055        0.7543534197
  C        18.0143721068        1.5578391330        1.4173177849
  C        19.0274294622        2.1118411938        0.6526943132
  C        15.7382259628        0.7860013563        3.0467440660
  C        14.9495542677        1.8420339424        3.4725570337
  C        14.8642033667        2.1649815607        4.7976113770
  C        15.6721138770        1.5192806677        5.7275428334
  C        16.6847638157        0.6416168965        5.2945677522
  C        16.6466104054        0.1687586682        3.9665389007
  H        17.9899513483        1.6720933310        2.5037839222
  H        19.8785000896        2.5029046814        1.1808487538
  H        14.2619761160        2.4361619389        2.7956077032
  H        14.2279647694        2.9544295716        5.1321507124
  H        15.6692274923        1.6786380308        6.7700699450
  H        17.2914920311        0.3221198213        6.1229240278
  H        17.2225801433       -0.6467220555        3.5974647972
  C        14.7024940989       -0.1804428371       -0.6861362319
  C        13.6756692065       -1.0129855883       -1.3360307951
  C        12.6060705052       -1.6187087451       -0.6053977144
  C        12.7828290020       -1.7985628264        0.8531880233
  C        13.8316911351       -1.1269757231        1.4709942299
  C        16.8009559916        1.0169664561       -0.6948502892
  C        15.7192530668        0.5224782720       -1.4463964211
  C        15.5673833793        0.7339340777       -2.9094360969
  C        14.6126690005        1.6902990162       -3.4259957107
  C        14.6946846903        2.1163659480       -4.7036560013
  C        15.6720625697        1.5563976165       -5.5890592546
  C        16.5305704302        0.5298984351       -5.1024377111
  C        16.4086452281        0.0949335803       -3.7949120185
  H        17.0018334240       -0.7493638522       -3.4470418693
  H        17.1878408944        0.0399330189       -5.7941703843
  H        15.8606287331        2.0169554093       -6.5391811898
  H        13.9444375518        2.8189446759       -5.0386138093
  H        13.9394474481        2.1220875558       -2.7251883940
  C        17.8360834120        1.7064279938       -1.3653333316
  C        19.0364430406        2.1173655474       -0.7507626982
  H        19.8085554177        2.4316902270       -1.4034894639
  H        17.6354646017        1.7610927689       -2.4288064942
  C        14.0482482478       -1.5142792928        2.9033363786
  C        15.0294188624       -2.5187719370        3.2325304212
  C        15.0527095764       -3.2256495047        4.4008753470
  C        14.1128066376       -2.8963833468        5.4303734375
  C        13.2423410624       -1.8315829400        5.1687207301
  C        13.1698148178       -1.1351408340        3.9488223840
  H        12.4042860339       -0.3610368461        3.6331873994
  H        12.5835570213       -1.5010319624        5.9096542549
  H        14.0682492762       -3.4351989553        6.3424894777
  H        15.7363303349       -4.1412560214        4.5294002653
  H        15.7233649513       -2.8239025451        2.4150137252
  C        11.7984212402       -2.6727673055        1.5652558639
  C        10.6952465684       -3.1626345463        0.8973215381
  C        10.3930874735       -2.7722255582       -0.4601083723
  C        11.3507709683       -2.0778314880       -1.1546690107
  H        11.1218099869       -1.8035921848       -2.1715220605
  H         9.5374752398       -3.1859296829       -0.9395426106
  H        10.1041359137       -3.8741610393        1.4277397621
  H        11.8848613039       -2.9316959803        2.6365230835
  C        13.7057128875       -1.4194266983       -2.8694554556
  C        14.7028081336       -2.3405509713       -3.2872309800
  C        14.7865925658       -2.7748627235       -4.6334462350
  C        13.8821112854       -2.3198477412       -5.5704284982
  C        12.9556332295       -1.3414581369       -5.1314668767
  C        12.8377576675       -0.9084961926       -3.8001960166
  H        11.9852984890       -0.2926115644       -3.4950879377
  H        12.2911117566       -0.9345262517       -5.9041907765
  H        13.8263964835       -2.6755433280       -6.5649089832
  H        15.6162865652       -3.4792840736       -4.9678732974
  H        15.3857473878       -2.7221594708       -2.5784928330
  C        11.0849698072        6.6695674665        0.7432024707
  C        10.1451883680        7.4710848495        1.4377818442
  C         9.1596405810        8.1318194528        0.7433488482
  C         8.2609765884        9.0010549654        1.5113682155
  C         7.1271097600        9.5376531229        0.9738790213
  C        10.2607459929        7.6989841018        2.9038750565
  C        11.1056459081        8.7959572636        3.2563375837
  C        11.3568042864        9.1912527899        4.6229631286
  C        10.5038767640        8.6346829456        5.5677071987
  C         9.5881840398        7.6488499387        5.2370927085
  C         9.5548443248        7.0639470628        3.9279385094
  H         8.4143292545        8.8944411631        2.5985515338
  H         6.4155741329       10.0798941213        1.5898153319
  H        11.6706207861        9.2953893081        2.4466788195
  H        12.1363393434        9.9038751071        4.8604701057
  H        10.5463732519        9.0476327138        6.5732864533
  H         8.9396005416        7.1960205172        5.9713006934
  H         8.6449396879        6.4071730178        3.6881324150
  C        11.0308239174        6.6829650415       -0.8294587031
  C        12.0991741531        6.0798661621       -1.5204600271
  C        13.1872083551        5.4806755506       -0.9244734094
  C        13.2620825058        5.4961203881        0.5505238479
  C        12.1669209530        6.0080579867        1.3303424415
  C         8.9959167164        8.1112855712       -0.7089335433
  C        10.0244790160        7.5459607241       -1.4597826593
  C        10.0646755668        7.8044521584       -2.9283374358
  C        10.9642302989        8.6985559875       -3.5544691851
  C        10.8515710591        9.0514494928       -4.8739309010
  C         9.7987172664        8.5513419441       -5.6204160230
  C         8.9132546893        7.5852695895       -5.0400564266
  C         9.0532098150        7.2443889674       -3.6905160542
  H         8.4702725559        6.4399599441       -3.2205481842
  H         8.0549896217        7.2767900348       -5.5270049035
  H         9.5207159505        8.8585225450       -6.6560946136
  H        11.5562897542        9.7550338370       -5.2306618705
  H        11.7981080708        9.1769022708       -2.9453081941
  C         7.9616289040        8.9432502220       -1.2589606908
  C         7.0049491608        9.5173848265       -0.4754247782
  H         6.3243663183       10.2180868738       -0.8925354318
  H         7.7307768156        8.9963462351       -2.2753107332
  C        12.0856825921        5.5359994142        2.7603350066
  C        11.3609608687        4.3389518601        2.8922977166
  C        11.1530105098        3.7370439778        4.1080562962
  C        11.7189542134        4.2778681070        5.2694668703
  C        12.4261351464        5.4833854500        5.1990984820
  C        12.6453982318        6.0894070020        3.9346507819
  H        13.1870755423        7.0627798323        3.8702960365
  H        13.0455482800        5.7838613098        6.0329728496
  H        11.5878227245        3.6604511893        6.1853311062
  H        10.5367012218        2.8413952117        4.1886382056
  H        11.0276625834        3.8197174833        2.0192785667
  C        14.3333661260        4.8217257626        1.1915431642
  C        15.3903266335        4.4235421605        0.4155098762
  C        15.3170937082        4.3667240071       -0.9911040416
  C        14.2614219679        4.8024523172       -1.6361448261
  H        14.3407346310        4.7816700124       -2.7136790828
  H        16.1628479079        3.9748721395       -1.4859082225
  H        16.2806819061        3.8956890258        0.8900622381
  H        14.3307814993        4.7082249203        2.2257430352
  C        12.0415048928        5.7627024655       -2.9740689244
  C        11.1471368501        4.7120568666       -3.3844368770
  C        10.9195690482        4.4728719623       -4.7412526630
  C        11.8560879473        5.0749036143       -5.6852713910
  C        12.8133845057        5.9956190346       -5.2465894130
  C        12.8766263265        6.3425177838       -3.8907724655
  H        13.5527666948        7.0416104918       -3.4121846363
  H        13.4657570400        6.4903123851       -5.9847414849
  H        11.8283518307        4.5987152398       -6.7140007608
  H        10.1746321308        3.7130861702       -5.0231884123
  H        10.6205512747        4.3367236884       -2.5002125716
