140

  C        14.2486041670        0.0245327159        1.0753458388
  C        15.2409544856        0.7707866842        1.7920751519
  C        16.1968004401        1.5227722371        0.9559040159
  C        17.3579008363        2.0499084740        1.5717935961
  C        18.3318342169        2.6670211530        0.7890194723
  C        15.2562665766        1.0894553184        3.2562430046
  C        14.5214289402        2.1806641592        3.6532179437
  C        14.4679492973        2.3855470833        5.0443016420
  C        15.1978955530        1.7092040728        6.0053079478
  C        16.0681580587        0.7361251920        5.4950763688
  C        15.9538389827        0.3377646766        4.1683981848
  H        17.5281755279        1.9989445223        2.6159542047
  H        19.2329747002        2.9961653951        1.2547747919
  H        14.0268098325        2.7831825487        2.8964931957
  H        13.7798325240        3.1304928625        5.3534665816
  H        15.1175835537        2.0721424972        7.0474954129
  H        16.6524124288        0.1874223661        6.2405190943
  H        16.5267826175       -0.4739206917        3.8301623615
  C        14.1765372388        0.0371862229       -0.3851861488
  C        13.1397473209       -0.6626777549       -1.0831745668
  C        12.0409352635       -1.2522588641       -0.4126947408
  C        12.0694094955       -1.1845846078        1.0241870246
  C        13.1426909964       -0.6384211627        1.7326766173
  C        16.0823192464        1.5691335584       -0.4656613035
  C        15.0108437051        0.8763113912       -1.1427365150
  C        14.9324616646        1.1808431476       -2.5776419525
  C        14.1548860583        2.3222729963       -2.9048499146
  C        14.1152899607        2.7150701006       -4.2528708872
  C        14.9120451481        2.0374094554       -5.1796920846
  C        15.8756093253        1.1295218818       -4.7809644182
  C        15.7626870997        0.6149191118       -3.5068311334
  H        16.3564754185       -0.1767956402       -3.1090776666
  H        16.5951991361        0.7761257668       -5.5090524380
  H        14.8566650881        2.2631958213       -6.2423941809
  H        13.4619722544        3.4641889283       -4.6606326778
  H        13.6215016751        2.8976024389       -2.1338287910
  C        17.0317753497        2.4052441165       -1.2060061647
  C        18.1466096920        2.9271772319       -0.5977086756
  H        18.8868987966        3.5255291129       -1.1484936558
  H        17.0568921718        2.4070620072       -2.2815867221
  C        13.1556627883       -0.9080258230        3.1731093552
  C        13.7150871011       -2.0815674738        3.6633497177
  C        13.6202642618       -2.4607060078        4.9921340589
  C        12.9724039143       -1.6036699846        5.8980345332
  C        12.3829630660       -0.4226345041        5.4428707224
  C        12.4756779137       -0.0652493840        4.0859816162
  H        11.9981487991        0.8695339239        3.7805795504
  H        11.9027550762        0.3382906336        6.1822075834
  H        12.9465214357       -1.8089932958        6.9281623970
  H        14.1175709100       -3.3599605618        5.2774406602
  H        14.2614785311       -2.7128126701        2.9588943797
  C        10.8084261056       -1.5567057566        1.6589686066
  C         9.7806357647       -2.0879028096        0.9521118549
  C         9.9015221356       -2.4277135318       -0.3909406740
  C        10.9854091325       -1.9519278727       -1.0748001940
  H        11.2179078258       -2.3751567402       -2.0931635767
  H         9.1554131766       -3.1010665315       -0.8354834585
  H         8.9518849366       -2.3920121230        1.5118575550
  H        10.7421098123       -1.6602460886        2.7143302645
  C        13.1964783922       -0.8919070540       -2.5273619009
  C        14.1456980451       -1.7912710358       -3.0837272438
  C        13.9965543691       -2.3568202913       -4.3134899289
  C        12.8958041893       -2.0623509749       -5.1282592662
  C        12.0310754296       -1.0844031218       -4.6800246888
  C        12.1899129871       -0.4748110322       -3.4175042093
  H        11.5407166386        0.3195677626       -3.0701907981
  H        11.1773131635       -0.7375388212       -5.2423190827
  H        12.6897050712       -2.4433931912       -6.1269479934
  H        14.7855929323       -3.0749545877       -4.5839248678
  H        15.0993299220       -2.0425089984       -2.5512986978
  C        10.4693126842        7.2239558764        1.4442220936
  C         9.4611048799        7.8437188521        2.2024357436
  C         8.3570712028        8.4284356827        1.4978344382
  C         7.1436974423        8.9498384273        2.1219603701
  C         6.1646249299        9.5043117299        1.4166400797
  C         9.4321466027        8.1542421375        3.6316689693
  C        10.1630038904        9.3503260353        3.9654531084
  C        10.2240443589        9.8211605434        5.2662670015
  C         9.3900071076        9.2124870335        6.2561807831
  C         8.6341869445        8.0923940002        5.9245612087
  C         8.6200189759        7.5772604094        4.6166518680
  H         6.8623461906        8.8444835185        3.1840348462
  H         5.2876275367        9.7847600365        1.9679581636
  H        10.7704460095        9.8824032224        3.2137186054
  H        10.9084014003       10.6559588391        5.5322062091
  H         9.4193942761        9.5156209983        7.3366504666
  H         8.2136202804        7.5892010744        6.7488091140
  H         8.1460294828        6.6902270713        4.3036339860
  C        10.4813675029        7.3369878463        0.0118002118
  C        11.5742678397        6.7771041980       -0.7541390405
  C        12.7094752563        6.3418096641       -0.0447817069
  C        12.7001774917        6.1615803858        1.4151254625
  C        11.4484908767        6.4393105861        2.1213457334
  C         8.3056198215        8.5246657222        0.0098885502
  C         9.3673382043        7.9551505908       -0.6318380373
  C         9.4074005793        8.1636021686       -2.1607403488
  C        10.1167407716        9.2842180387       -2.6772276738
  C        10.0190552512        9.6431588174       -4.0125046866
  C         9.2021951976        8.9564523900       -4.9415781168
  C         8.4044335687        7.9004999207       -4.4456589263
  C         8.5039783292        7.5370049549       -3.0722076496
  H         7.8972319590        6.7099928952       -2.7062086728
  H         7.7135257773        7.3901537590       -5.0634220656
  H         9.2592333435        9.2278584755       -5.9421278618
  H        10.6240908069       10.4313851066       -4.3916548454
  H        10.6652439147        9.8660941267       -1.9679388143
  C         7.2661742358        9.2441234500       -0.6278135379
  C         6.1741217039        9.7078790366        0.0536117445
  H         5.4376468747       10.2868469337       -0.5123725778
  H         7.2790957986        9.1503891373       -1.7185775559
  C        11.3542344254        5.9995603657        3.5617235823
  C        10.5058159784        4.9963691044        3.7537592319
  C        10.3116398008        4.4557771561        5.0441605445
  C        11.0866233801        4.9505846073        6.0997326989
  C        11.8632343089        6.0960910235        5.9529166120
  C        11.9891244535        6.5816047299        4.6703323945
  H        12.6410383365        7.4469504097        4.4510743217
  H        12.3715426987        6.6236028742        6.7575824601
  H        11.1502880507        4.4824844514        7.0960598613
  H         9.7653605273        3.5453959614        5.2962932474
  H        10.0462320835        4.5134488423        2.8446146533
  C        13.7869953863        5.5875781251        2.0263159403
  C        14.7979533318        5.0226262794        1.3473424685
  C        14.8843557578        5.1569619605       -0.0415187498
  C        13.8212672349        5.7639375446       -0.7249888252
  H        13.7543521568        5.9438710563       -1.8011554246
  H        15.7859560198        4.7301201814       -0.4613378176
  H        15.7118873733        4.6341765356        1.7167748515
  H        13.7204706303        5.4406139839        3.1189851624
  C        11.5716551409        6.6180741668       -2.2538428434
  C        10.7614584986        5.5602977808       -2.6717785018
  C        10.7669651501        5.0424420345       -3.9523862945
  C        11.6090400554        5.6957777966       -4.8904774472
  C        12.4103014477        6.7460830158       -4.5235062604
  C        12.3801961471        7.2396707805       -3.2515038114
  H        13.0482195135        8.0764794940       -2.8657185677
  H        12.9255241034        7.3236263577       -5.2588518439
  H        11.6076759401        5.5065775360       -5.9634258653
  H        10.0197818451        4.3208542302       -4.2135259111
  H        10.2021874463        4.9687236258       -1.9503417349
