140

  C         4.7793010583       -1.3225441807       13.9358563267
  C         5.7692679603       -0.5180673545       14.6420339917
  C         6.9129981704        0.0212079296       13.9380857967
  C         8.0045412514        0.6957121056       14.6101462304
  C         8.9998715457        1.3483525887       13.8916007541
  C         5.6034425885       -0.2011050281       16.0892763430
  C         4.8338787476        0.8586662487       16.6207566618
  C         4.9800444781        1.3222300848       17.9607560667
  C         5.8232691647        0.6588910973       18.8255322917
  C         6.5836278551       -0.3712363361       18.3100587416
  C         6.5494903681       -0.7358189499       16.9767076204
  H         7.9295117696        0.9150711079       15.6678074342
  H         9.6704615832        2.0107461927       14.5143311708
  H         4.2170544336        1.3760106603       15.8787213641
  H         4.4850939956        2.1625440141       18.3000652865
  H         5.7667383759        0.9114782677       19.9102270334
  H         7.1826265120       -0.9549868367       19.0610758396
  H         7.2226666199       -1.5181642240       16.5368571503
  C         4.9963417507       -1.5315765059       12.4011979167
  C         4.0715354700       -2.3539564074       11.6961350277
  C         2.8583176264       -2.8266387713       12.3511294425
  C         2.7730162788       -2.8065743509       13.8042858265
  C         3.7670104426       -2.1389775301       14.5188088174
  C         7.0295306225       -0.0302275355       12.4816760911
  C         5.9619581674       -0.6902189595       11.7403572093
  C         5.9790788854       -0.5211930602       10.2737247550
  C         5.3678839344        0.5926648261        9.7542978400
  C         5.3301234046        0.8621702176        8.3382596361
  C         5.9912294603        0.0314075998        7.4301256626
  C         6.8167321514       -0.9934788833        7.9970675347
  C         6.7854811047       -1.2738949663        9.3258660194
  H         7.4529803740       -2.0651597487        9.7003383307
  H         7.4000007511       -1.5755360040        7.3364005588
  H         5.9867815123        0.3059863660        6.3794579516
  H         4.8771068957        1.7738055192        7.9916845781
  H         4.8879970286        1.3182110938       10.4390683097
  C         8.1508953159        0.5235858954       11.8041888581
  C         9.0767961547        1.2882931250       12.4883435244
  H         9.9588268898        1.6654507328       12.0073251752
  H         8.2977954751        0.4854684581       10.7384649837
  C         3.8646322455       -2.5389875492       15.9669162480
  C         4.5811505975       -3.5752467625       16.4319612709
  C         4.5644953034       -3.9647619233       17.7913965320
  C         3.7403357937       -3.2540365621       18.7045057551
  C         2.9144089883       -2.2494707704       18.2283158100
  C         2.9996092595       -1.9441391555       16.9080669856
  H         2.3089523796       -1.2273917230       16.4795325834
  H         2.1249410528       -1.7204764047       18.8448524951
  H         3.6946257914       -3.4643087981       19.7623759302
  H         5.2719951300       -4.6661285446       18.1816924581
  H         5.3035256099       -4.0641356309       15.7915478544
  C         1.6491135890       -3.4453785103       14.4061191116
  C         0.6057435838       -3.9654532971       13.6568976739
  C         0.6673812251       -3.8908943258       12.2436098611
  C         1.7321422452       -3.3116602320       11.6077458991
  H         1.8035943588       -3.2701568902       10.5342335008
  H        -0.1879309397       -4.3807414579       11.6623900133
  H        -0.2146386599       -4.5328492858       14.1668325361
  H         1.5912551049       -3.5769118550       15.4698438301
  C         4.2124313788       -2.7648567980       10.2887340260
  C         4.9943563268       -3.9306610570        9.9865162005
  C         5.1432656438       -4.3963784594        8.6850380744
  C         4.4281834910       -3.8045783966        7.6422253065
  C         3.5410426690       -2.7387076301        7.9489014836
  C         3.3892117439       -2.2486365183        9.2791178611
  H         2.7107450019       -1.3670103763        9.3404115756
  H         2.9517340455       -2.2810521862        7.1628138342
  H         4.6201502659       -4.0821840914        6.6351169947
  H         5.8322532927       -5.1971513982        8.5218228634
  H         5.5116386415       -4.4513780251       10.8211543679
  C         1.4816620345        6.0078428254       13.7319958525
  C         0.5388825976        6.8148430073       14.4537046983
  C        -0.6457564441        7.3824500393       13.7381343579
  C        -1.7848752801        7.9241434065       14.4217619036
  C        -2.8739768520        8.3344467636       13.7404581404
  C         0.5502946605        7.0331600353       15.9947909735
  C         1.1175363194        8.1943814350       16.5151881861
  C         0.8493883268        8.5659862575       17.8658909477
  C         0.1849414437        7.6837882372       18.7007595739
  C        -0.3751445472        6.5267699031       18.1614312122
  C        -0.2548500605        6.1838133304       16.7778524486
  H        -1.6874123054        7.8175481872       15.4985391372
  H        -3.7300627751        8.6954150023       14.3496294235
  H         1.6810723055        8.8129845688       15.7951863799
  H         1.1842613238        9.5873953644       18.3030745617
  H        -0.0541005082        7.9383018404       19.7055474764
  H        -0.9758176415        5.9149129973       18.8420719054
  H        -0.6975851484        5.3171523461       16.2812488472
  C         1.4385749443        5.9924505650       12.2062102712
  C         2.3945913406        5.1464933991       11.5680407042
  C         3.4915276532        4.5933608247       12.2303184359
  C         3.4894921786        4.5836020604       13.7322737073
  C         2.4607585815        5.2037224247       14.4278129094
  C        -0.6683219093        7.2954620506       12.2822275143
  C         0.4707166949        6.7987656254       11.5586492368
  C         0.5750842729        7.0875341979       10.0445865952
  C         1.2937983909        8.1850236864        9.4924766943
  C         1.1670254515        8.5525985423        8.1020964820
  C         0.3117823824        7.8946132716        7.2752173709
  C        -0.4140873879        6.8161732700        7.8220344795
  C        -0.2867080742        6.3892668890        9.1329005371
  H        -0.8337091784        5.5541389311        9.4723846602
  H        -1.1406362312        6.2789255578        7.2637893216
  H         0.0484963988        8.1785100364        6.2510301842
  H         1.7900407471        9.4070615981        7.7629669028
  H         1.8967933972        8.7579507087       10.1782286602
  C        -1.7130277780        7.9673445723       11.6217697375
  C        -2.8144723691        8.4084402000       12.3237680955
  H        -3.6415041869        8.9156754086       11.8251079933
  H        -1.6099437720        8.1326351726       10.5687235871
  C         2.4005721526        4.8762304358       15.8918033524
  C         1.7023690458        3.6302065429       16.2372721204
  C         1.8514210620        3.1806888280       17.5715206663
  C         2.5140021782        3.9676484459       18.5669721033
  C         3.0578492374        5.1986488129       18.2690874584
  C         2.9958739953        5.6886631546       16.9117068166
  H         3.4612200583        6.6272930263       16.5936836749
  H         3.5819991051        5.8340768889       19.0172288016
  H         2.7236189975        3.5172503198       19.5599086751
  H         1.4145380570        2.2137104407       17.7562326452
  H         1.3986247386        2.9729213138       15.4082206160
  C         4.6884479539        4.0797603655       14.4429091695
  C         5.6956874130        3.5477165734       13.6889107013
  C         5.5699698023        3.4017112690       12.3036023167
  C         4.4899251766        3.8849629991       11.6196508934
  H         4.6164439602        3.8013590352       10.5595710681
  H         6.3353571466        2.9577225810       11.7148746325
  H         6.6172676266        3.1768861843       14.1211130512
  H         4.7171365933        4.0902267583       15.5566176498
  C         2.2027456513        4.7864968433       10.1721304934
  C         1.2613288005        3.7521512456        9.7935177171
  C         1.3442559580        3.2327355806        8.5028048799
  C         2.2369144682        3.8117989725        7.5462000832
  C         3.1380923544        4.7946745800        7.9133056126
  C         3.0534614255        5.3366417709        9.1964318765
  H         3.6788268625        6.1520072458        9.5331850179
  H         3.8499956278        5.1016877763        7.1868932457
  H         2.3415438620        3.4582386078        6.5383976736
  H         0.6429102523        2.4727644130        8.1497147986
  H         0.4549419912        3.3600967682       10.4125627207
