140

  C         1.3122647671        1.3009729464       15.1012713987
  C         2.2708142256        2.0658066026       15.8190605877
  C         3.4038468253        2.6506549570       15.1511476793
  C         4.4675346007        3.2156791621       15.9369033616
  C         5.5597939352        3.8427755903       15.3000646584
  C         2.1295568735        2.4980914363       17.2671879256
  C         1.2697166102        3.5575353511       17.6272703762
  C         1.2386200046        3.9911460579       18.9489064716
  C         1.8848215359        3.3019080389       19.9906897653
  C         2.7716536920        2.2258591586       19.6275458771
  C         2.8522785603        1.8181535356       18.3290689619
  H         4.2001355272        3.3545359609       16.9863500226
  H         6.3465078685        4.3452307421       15.8944397220
  H         0.7683878682        4.1230116735       16.8760918579
  H         0.4869863866        4.7753949030       19.1472820498
  H         1.7817532038        3.6732452730       21.0298487200
  H         3.3988308525        1.8580870858       20.4405277008
  H         3.4822354054        0.9018481652       18.1061119492
  C         1.2923458616        1.3771160861       13.6233605378
  C         0.2847766340        0.6198474143       12.9253026325
  C        -0.7487063774        0.0336245286       13.6364075251
  C        -0.7985260436        0.0364022001       15.0797159542
  C         0.2885708485        0.6275650236       15.7868053052
  C         3.4533356373        2.6440315625       13.6994670054
  C         2.3317913818        2.1106099261       12.9497773025
  C         2.3619205994        2.3375136537       11.4451159339
  C         1.4296778359        3.2021573895       10.8801693229
  C         1.3754362388        3.3567423564        9.3916520617
  C         2.3439102848        2.6917743637        8.6267862476
  C         3.2166989061        1.7645157315        9.2532069879
  C         3.2100273251        1.5845970801       10.6222069874
  H         3.9425676489        0.9500711723       11.0828676875
  H         3.9611908575        1.3086503392        8.6636696253
  H         2.4796431829        2.8235103334        7.5557495180
  H         0.7893536611        4.2227907775        9.0500402073
  H         0.8116344176        3.7125737033       11.5868286759
  C         4.5689772863        3.3084331997       13.0738180633
  C         5.5265573421        3.8773183061       13.8592718680
  H         6.3925969349        4.1892140147       13.2854972182
  H         4.6356137248        3.4583096973       12.0253513275
  C         0.3412311997        0.1896573597       17.2609851386
  C         0.9213900191       -1.0839119407       17.5327413882
  C         0.7555586981       -1.5013459099       18.8506427391
  C        -0.1647741213       -0.8663771368       19.7165541609
  C        -0.6819654115        0.3844995725       19.4815192602
  C        -0.4880714100        0.8946528383       18.1652351406
  H        -0.9499362843        1.8519928225       17.7634401933
  H        -1.2654125327        0.7824304320       20.2958454987
  H        -0.0849606592       -1.2194449356       20.7462374536
  H         1.3677237938       -2.4348077266       19.1521451127
  H         1.5238369845       -1.6235983340       16.7981160959
  C        -1.8270451850       -0.6562818661       15.6945673171
  C        -2.8600911411       -1.3823636680       15.0789503853
  C        -2.7790351458       -1.2996963426       13.6722559669
  C        -1.8254722373       -0.6723291522       12.9402759346
  H        -1.9526418059       -0.6831783418       11.8556118385
  H        -3.6167451631       -1.7207518993       13.0715265767
  H        -3.6629644394       -2.0055009389       15.5076219395
  H        -1.8510029291       -0.6967801435       16.8053278203
  C         0.3723451657        0.3010499390       11.4828880784
  C         1.2446275820       -0.7282173865       11.1711458324
  C         1.3690966704       -1.2484525450        9.9026629286
  C         0.4031369330       -0.8171685713        8.9358364740
  C        -0.5646742018        0.1006056491        9.2955575927
  C        -0.5512233346        0.6628212581       10.5323014152
  H        -1.3130862323        1.3974302187       10.8496710920
  H        -1.2445147894        0.3259589308        8.4813476973
  H         0.3351686283       -1.1550749306        7.9093652595
  H         2.1580387530       -1.9756817872        9.5515192478
  H         1.9911758507       -1.0768422315       11.8899997496
  C        -2.2853749001        8.2034989559       14.9901572827
  C        -3.3795373941        8.8243751659       15.7088499417
  C        -4.3605849661        9.5305202541       15.0549398931
  C        -5.3904381881       10.1542998486       15.8800117109
  C        -6.4327053968       10.8399744429       15.2938476315
  C        -3.2441523302        9.2027095415       17.1356871906
  C        -2.4353170023       10.3582941221       17.3098375647
  C        -2.4432827166       11.0255948380       18.5805589236
  C        -3.0888499747       10.5034290863       19.6941507189
  C        -3.7476960664        9.2760741370       19.5140028327
  C        -3.9335939147        8.7119706174       18.2656850286
  H        -5.3363187140        9.9594161650       16.9807397074
  H        -7.1383562533       11.4290347504       15.8683718910
  H        -1.8304130504       10.8382639234       16.5005117750
  H        -1.7727921730       11.9482054661       18.6993068140
  H        -2.9114909829       10.9957191398       20.6375486920
  H        -4.0762638908        8.7897188586       20.4201800151
  H        -4.5201340937        7.7876423370       18.2215075775
  C        -2.3386672526        8.2629996494       13.4915595492
  C        -1.3334653568        7.6659002497       12.7770627794
  C        -0.1351799001        7.1504061479       13.4349179939
  C        -0.1053398672        7.0965474934       14.8545359088
  C        -1.1877179478        7.5543289282       15.6123068297
  C        -4.4565747397        9.5518055808       13.6310209259
  C        -3.4722072746        8.9767323982       12.8335215061
  C        -3.5341578368        9.2558725849       11.3926962633
  C        -2.9024379659       10.4755072933       10.9108290595
  C        -2.9197116812       10.8050553519        9.5966652096
  C        -3.7142943114       10.0640809332        8.7239417415
  C        -4.3607468241        8.9207969149        9.1784082172
  C        -4.3117050571        8.5192825898       10.4975321362
  H        -4.8402631683        7.6139186390       10.7189990716
  H        -4.8987826546        8.3254780491        8.4303077878
  H        -3.9133408543       10.3481236454        7.6808883232
  H        -2.3853251165       11.6686762714        9.0898714259
  H        -2.3047551937       11.0909250609       11.5976163937
  C        -5.5857202821       10.2633057393       13.0947426000
  C        -6.5309083969       10.8961850541       13.8864448628
  H        -7.3552845129       11.5035414605       13.4443197987
  H        -5.6931290482       10.5305746823       12.0625967224
  C        -1.2851119618        7.2719242782       17.0976755395
  C        -2.0742790254        6.2141255328       17.5011716639
  C        -2.1922302284        5.9076759800       18.8710730749
  C        -1.5001938894        6.6372287069       19.8343116542
  C        -0.5545082404        7.5777468171       19.3977059855
  C        -0.4277670424        7.9554576646       18.0486470097
  H         0.3628010760        8.5940572862       17.7298924015
  H         0.1252815308        8.0180443957       20.0928996008
  H        -1.4568489676        6.4517155366       20.8923517767
  H        -2.8131321346        5.0373678466       19.1217912786
  H        -2.7694450966        5.7999919614       16.7782109002
  C         0.9786614441        6.3848158889       15.4834326090
  C         1.9702576571        5.7694377378       14.7451618854
  C         1.9140789773        5.8472801582       13.3432769284
  C         0.8987034755        6.4759875184       12.6645631672
  H         0.9415945889        6.3262307611       11.5869853758
  H         2.5938093124        5.2557263534       12.7747950078
  H         2.7818345866        5.1542570078       15.1987464328
  H         1.1075461631        6.4386871921       16.5690422761
  C        -1.3828095176        7.4117968823       11.3247901222
  C        -2.0206753182        6.2949700373       10.8499391726
  C        -1.9072272952        5.9158616388        9.5053634179
  C        -1.1534851637        6.7150242857        8.6038919784
  C        -0.4439645206        7.7883569339        9.1353558027
  C        -0.6502568926        8.1835157773       10.4941537992
  H        -0.3722772332        9.2331224801       10.7574613096
  H         0.2242674008        8.2789830642        8.4951099383
  H        -1.0950618337        6.4677452331        7.5119953961
  H        -2.2898634226        4.9415312515        9.2335881387
  H        -2.7704287145        5.7194141452       11.4628647764
