140

  C        14.5103489127        0.0057376777        0.9763607410
  C        15.5038913522        0.8694360237        1.6242930872
  C        16.5786279053        1.3582183703        0.8460513761
  C        17.6213979662        2.1183924838        1.4389168173
  C        18.6846052891        2.5904356873        0.6988446763
  C        15.3975657708        1.3170466996        3.0692243333
  C        14.4345064700        2.2580058448        3.4931492503
  C        14.4753913846        2.6941624291        4.8464861205
  C        15.3716274192        2.2681517917        5.7401315360
  C        16.2937323038        1.2668000845        5.3326230773
  C        16.2608348300        0.8057369015        4.0100423382
  H        17.4332772289        2.3379219478        2.4990708731
  H        19.4541374845        3.1575071967        1.2189026931
  H        13.7555051481        2.7552886061        2.8792916605
  H        13.6907752216        3.4294353900        5.0607169318
  H        15.4128528299        2.5444130696        6.7572167159
  H        17.0051545578        0.8587011224        6.1013039112
  H        16.8768798951       -0.0432491430        3.7280629997
  C        14.5213697051       -0.2221056287       -0.5127913786
  C        13.5005908335       -1.1324380944       -1.0694403029
  C        12.3309534447       -1.4979478335       -0.3064562155
  C        12.3458583056       -1.3521031759        1.1552708246
  C        13.4880699370       -0.6762688394        1.8215215077
  C        16.6603650787        1.0891864999       -0.5973118120
  C        15.6116503078        0.3681870727       -1.2525819364
  C        15.5895224409        0.6177073380       -2.7432335452
  C        14.9181008820        1.7899962322       -3.1337150988
  C        15.0583800031        2.4142509582       -4.4102931130
  C        15.7454636600        1.7800611559       -5.4473430710
  C        16.3552485622        0.5691814160       -5.0936686230
  C        16.1926205117       -0.0175092642       -3.7906492302
  H        16.6680532729       -0.9435055685       -3.6040421520
  H        16.9449117565       -0.0490834255       -5.7510416348
  H        15.8580423674        2.1869387555       -6.4772015940
  H        14.5172093163        3.3187830786       -4.6470967787
  H        14.2788502195        2.2496301203       -2.3648271011
  C        17.7767381743        1.6608980144       -1.3140427067
  C        18.7410594018        2.4446199419       -0.6805839228
  H        19.5118871239        2.9643580790       -1.2819960655
  H        17.8488296688        1.3770796626       -2.3577742349
  C        13.5020072690       -0.9581719972        3.2848943578
  C        14.4093528527       -2.1049589565        3.5684010180
  C        14.4352118632       -2.6972401766        4.8470430426
  C        13.6801164905       -2.1243450456        5.8631115694
  C        12.7631873094       -1.0821476546        5.5612037099
  C        12.6520541879       -0.5223846352        4.2903104638
  H        12.0988672722        0.3761822505        4.2580117556
  H        12.2445735634       -0.6583556060        6.4236796771
  H        13.7181015384       -2.4734726639        6.9157099464
  H        15.0492526880       -3.5714143337        4.8593463851
  H        15.1374242840       -2.3795495663        2.8085250029
  C        11.1797800178       -1.8615419100        1.8297427965
  C        10.1373300665       -2.4540363665        1.1611519217
  C        10.1418545041       -2.5649684619       -0.2656097904
  C        11.2213634825       -2.0733744432       -0.9534699721
  H        11.1469860919       -2.1161364068       -2.0102039817
  H         9.3704227606       -3.1508763186       -0.7739503833
  H         9.3317167023       -2.9118261886        1.6803966958
  H        11.0894597892       -1.8656714621        2.9106136055
  C        13.4113263591       -1.3585601843       -2.5643443938
  C        13.9952397023       -2.5281009402       -3.1218516234
  C        14.0712037154       -2.6842514609       -4.4781221181
  C        13.4159374074       -1.7953429398       -5.3249411205
  C        12.7282443328       -0.7204970502       -4.7575258536
  C        12.7875349608       -0.4629708832       -3.3812253562
  H        12.3154340170        0.4261400602       -2.9387686184
  H        12.1506362431        0.0163676889       -5.3424870570
  H        13.3730375046       -2.0352429371       -6.3974756593
  H        14.4143919899       -3.6458172560       -4.9021325119
  H        14.4227953051       -3.2892676552       -2.5248940335
  C        10.8540942592        7.1396568316        1.0802154432
  C         9.8295218125        7.7582364104        1.8618830851
  C         8.7040910522        8.3391645943        1.2396432190
  C         7.7949551090        9.0669986263        2.0700178021
  C         6.6676897785        9.6292500021        1.5703786871
  C         9.9063170984        8.0733176788        3.3597881084
  C        10.8548689919        9.0682437799        3.7805125896
  C        10.8244039983        9.6501642227        5.0055270507
  C         9.8790057162        9.1638037598        5.9172499267
  C         9.0355041437        8.0715665343        5.6001781785
  C         9.0910970142        7.4974347818        4.3211689269
  H         8.1063985325        9.0997988216        3.0552200869
  H         6.0669518282       10.0276824321        2.3245856051
  H        11.5225173336        9.4816705384        2.9987629154
  H        11.4701910526       10.5719350593        5.0952196273
  H         9.7585154698        9.5919072605        6.9318107111
  H         8.3879995006        7.5966754006        6.3339907615
  H         8.4482584327        6.7440993583        3.8401015137
  C        10.6626459728        7.0280240152       -0.4474269992
  C        11.6210001936        6.2833141991       -1.1722798044
  C        12.7349930769        5.7872377747       -0.5361170149
  C        12.8550388397        5.7865940673        0.9024004463
  C        11.8414474765        6.2733288882        1.6741802207
  C         8.4613400761        8.2708134784       -0.2051707619
  C         9.5440684731        7.6798102277       -0.9943599112
  C         9.4642348721        7.7995886807       -2.5441051718
  C        10.1830528783        8.9630352221       -3.0596610811
  C         9.8825854872        9.4594718895       -4.3370271252
  C         9.0814925578        8.6598264589       -5.2118321548
  C         8.4758315868        7.4783930207       -4.7696423100
  C         8.6654663437        7.0520202317       -3.4723909101
  H         8.1421152685        6.2173373116       -3.0550342829
  H         7.8961307632        6.8867009951       -5.4615295759
  H         8.8128228439        9.0578227830       -6.1912612959
  H        10.3855012698       10.3228925339       -4.7373245786
  H        10.9297926334        9.4930002138       -2.4245247253
  C         7.3021098185        8.9496949991       -0.6986145642
  C         6.3843577126        9.5797378315        0.1400216169
  H         5.4097766705       10.0028851095       -0.1432567033
  H         7.0542943356        8.8483263660       -1.7155482179
  C        11.9102098872        6.0764173569        3.1473124257
  C        11.1301885024        4.9892394294        3.6011233567
  C        11.1314053443        4.5456993533        4.9333950057
  C        12.2115343468        5.0442968159        5.7367981446
  C        13.0225898831        6.1524370523        5.3097335633
  C        12.8342732952        6.6661732507        4.0260494689
  H        13.5222227470        7.4386392299        3.6694723920
  H        13.8483447025        6.4832383561        5.9334169708
  H        12.3402258624        4.5879989259        6.7068770293
  H        10.4135051472        3.7869959727        5.2546912425
  H        10.3563273751        4.5314768546        2.9963936900
  C        13.9254426977        5.0843671293        1.4578683201
  C        14.9483848211        4.4852338157        0.7785144271
  C        14.8926367761        4.6066992218       -0.6200536102
  C        13.7792625215        5.1531373969       -1.2481492244
  H        13.7306797728        5.2376054267       -2.3048282942
  H        15.6769036838        4.1813311325       -1.2143866429
  H        15.7033266411        4.0014335333        1.3833790299
  H        14.0498472034        5.0611765559        2.5200426999
  C        11.5292364516        5.9684042717       -2.6759171948
  C        11.0243129835        4.7805426605       -3.2129494591
  C        11.0841545050        4.4897143397       -4.5698721555
  C        11.7130626121        5.3181130840       -5.4503488337
  C        12.3597893065        6.5119274183       -4.9721609324
  C        12.2747858655        6.7863050437       -3.5495929337
  H        12.8771613259        7.7168270444       -3.2519662099
  H        12.8204550986        7.2352926484       -5.6259889817
  H        11.8044033181        5.0834907662       -6.5237156813
  H        10.6202339164        3.5838594820       -4.9142329103
  H        10.5687322586        4.1124580999       -2.5099466254
