140

  C         4.5884789789       -1.2870195966       13.7655702000
  C         5.6039279193       -0.5369489686       14.4128028287
  C         6.6357251954        0.0893802795       13.6696829360
  C         7.7855608131        0.7494324143       14.3121867486
  C         8.6827149595        1.4758892248       13.5508208833
  C         5.5633472909       -0.2479728581       15.9250668315
  C         4.7842506422        0.8124411286       16.3473376160
  C         4.9362276970        1.3345825673       17.6381906464
  C         5.8116233012        0.7039737903       18.5347236720
  C         6.5135781470       -0.4689235346       18.0541706866
  C         6.4132248615       -0.8997783847       16.7699218437
  H         7.7576564409        0.6647303541       15.3757288092
  H         9.6385715868        1.8975550203       13.8555160475
  H         4.1541913629        1.2656778139       15.6295125827
  H         4.4120704816        2.1825409134       18.0497675916
  H         5.8859206907        1.2036946578       19.5271751098
  H         7.2108014166       -0.9791946993       18.8047962857
  H         7.0913298251       -1.7601340664       16.4357751479
  C         4.4804550117       -1.2412381878       12.2582923896
  C         3.4895893202       -2.0012643553       11.5897667508
  C         2.4060526697       -2.5073760318       12.3552608328
  C         2.4431718459       -2.5726094519       13.7986899920
  C         3.5666716338       -2.0699104525       14.4962529706
  C         6.5774204785        0.1408670623       12.2508390318
  C         5.5569537118       -0.5142742388       11.5264763287
  C         5.4834118191       -0.1009438886       10.0855938996
  C         4.5620456833        0.9108970437        9.8143308440
  C         4.3421097839        1.2871619710        8.5112743510
  C         5.1452649793        0.8455386962        7.4419075788
  C         6.0710885331       -0.2105087085        7.7279485811
  C         6.1790506513       -0.6812909693        9.0405303287
  H         6.8025746000       -1.5494934611        9.2161398040
  H         6.7536612983       -0.6413076069        6.9933110006
  H         4.9591790437        1.1422483135        6.4324868444
  H         3.5152461563        1.9927310266        8.2492307005
  H         3.9808254442        1.3192813632       10.6319474964
  C         7.4652972500        1.0002701546       11.4736375549
  C         8.5182047504        1.6062567753       12.0877688491
  H         9.1854180085        2.2493869467       11.5187097625
  H         7.3943055676        0.8906231180       10.3497605140
  C         3.6919587345       -2.5012623007       15.9097829704
  C         4.7224918310       -3.4376519074       16.1491295158
  C         4.9233701661       -3.9983318586       17.4228214293
  C         4.1517920589       -3.3952694810       18.4713991891
  C         3.1910800417       -2.3557864758       18.2556935277
  C         2.9362999530       -2.0168075683       16.9689668616
  H         2.2075370169       -1.1879658115       16.7853978626
  H         2.6157771370       -1.9255545014       19.0530680683
  H         4.2669269627       -3.6551220385       19.5032167910
  H         5.6019247731       -4.8205159288       17.6075084910
  H         5.4035374099       -3.7156547318       15.3871872083
  C         1.3544167062       -3.2284558816       14.5076268318
  C         0.3344671151       -3.7778671724       13.8283968601
  C         0.2896644238       -3.6881330045       12.3638712452
  C         1.2704322443       -3.0261701574       11.7261468227
  H         1.2798141133       -2.9982155529       10.6669325751
  H        -0.6076900816       -4.0290378481       11.7946984386
  H        -0.5184581635       -4.2809878773       14.3869071218
  H         1.4719776275       -3.2311475998       15.5693339545
  C         3.5899213100       -2.3868051726       10.1180728873
  C         4.3574393112       -3.3795476905        9.5517046539
  C         4.4355487777       -3.5707088289        8.1305926722
  C         3.4556256748       -2.9372438611        7.3179873610
  C         2.7146383357       -1.8716637286        7.8543468289
  C         2.7831716312       -1.6331540720        9.2660368620
  H         2.3001775628       -0.7069665349        9.6133061665
  H         2.2470325801       -1.1956136658        7.1517502175
  H         3.3008994552       -3.1234717330        6.2511861368
  H         5.1358896963       -4.2935245039        7.7797543078
  H         5.1063387793       -3.9347943268       10.2113630533
  C         1.1695238443        6.2000278109       13.8544861179
  C         0.1689137843        6.7792420071       14.6212894539
  C        -0.9536677215        7.3869445157       13.9511985166
  C        -1.9902484983        8.0246380638       14.6928576544
  C        -3.1394361037        8.4332681354       14.0581918995
  C         0.3444308231        7.1583783013       16.0624566437
  C         1.2005486011        8.2234291919       16.4187857151
  C         1.2661496254        8.5800090382       17.8304068317
  C         0.4725033282        7.8994770136       18.7754875959
  C        -0.3536996270        6.8421677379       18.3511895002
  C        -0.4713994369        6.5206671785       17.0412827214
  H        -1.9089223923        8.1359887630       15.7732372016
  H        -3.8623048420        9.0330035122       14.6410700369
  H         1.8871750539        8.6691883522       15.6670802717
  H         1.9844889585        9.3401946280       18.1885277483
  H         0.5857624476        8.1354517955       19.8501640662
  H        -1.0685746341        6.3755899073       19.0347634173
  H        -1.0219033363        5.5968661774       16.6924762283
  C         1.1070630896        6.2503820715       12.3878037313
  C         2.1139736891        5.5944403937       11.6300071857
  C         3.1856528538        4.8741473725       12.1803239272
  C         3.1268160429        4.7864037564       13.6775206415
  C         2.1840556241        5.4412300593       14.4264713236
  C        -0.9919823737        7.5373798945       12.4707855540
  C         0.1125874686        7.0266645559       11.7399605987
  C         0.0948674547        7.5335410720       10.2819669983
  C         0.9260430486        8.5484471471        9.8620449382
  C         0.8509623665        9.0424006169        8.5234486251
  C        -0.0877859682        8.4947595196        7.6771456599
  C        -0.9730641401        7.4774941238        8.0846112427
  C        -0.8627324124        6.9819251756        9.4028985164
  H        -1.5495683362        6.1930328135        9.7194884773
  H        -1.7593947194        7.2015069898        7.3838204642
  H        -0.2359563917        9.0214396276        6.7320907347
  H         1.4829407096        9.9134628427        8.1539909184
  H         1.5504763134        8.9817999634       10.5901233840
  C        -2.1107678569        8.1426885881       11.8586243252
  C        -3.1918538450        8.4966623664       12.6678468578
  H        -4.0267909744        8.9706696734       12.0671995502
  H        -2.1851427898        8.2811478319       10.7811147323
  C         2.0815130788        4.9709239208       15.8548467194
  C         1.2479688405        3.8775080373       16.1847858428
  C         1.3229592912        3.3149325103       17.4382926947
  C         2.2925666531        3.7797640203       18.3688054833
  C         3.1510965890        4.8642738816       18.0297090984
  C         3.0180671239        5.5023336900       16.7737707516
  H         3.5335942608        6.4392576869       16.5986158337
  H         3.8951374958        5.1413790783       18.6824105276
  H         2.3767948005        3.3781308373       19.3652156772
  H         0.5575300630        2.5831554317       17.7500458359
  H         0.6132096520        3.3709771896       15.4324747656
  C         4.2395524143        4.1196710566       14.2892684865
  C         5.2682020795        3.5930793515       13.5302966205
  C         5.2486224424        3.6438751492       12.0858588394
  C         4.2108238865        4.2165673742       11.3774136859
  H         4.1083741516        4.1755111620       10.2639289417
  H         6.0767051734        3.2399699936       11.4968047845
  H         6.0879677899        3.0460730600       14.0419965850
  H         4.3093178394        3.9371009081       15.3636296065
  C         1.9719474636        5.4697061102       10.1524758313
  C         1.1304495106        4.4189697004        9.6639780466
  C         1.1731367944        4.0568818005        8.3448530737
  C         2.1094718142        4.6213562806        7.4523775571
  C         2.9433676005        5.6459954826        7.9385848137
  C         2.9205789900        6.0439142958        9.2664329359
  H         3.6991407459        6.6722854729        9.6027499784
  H         3.7914918601        5.9862640078        7.4186815485
  H         2.0866450329        4.2815884374        6.4167497041
  H         0.5178785103        3.2896970911        7.9360771423
  H         0.4561939852        3.8347802809       10.3284478208
