140

  C         4.7012676934        0.2391099865       16.2280291060
  C         5.7536642437        0.8619180816       16.9231256088
  C         6.8863457605        1.3825863071       16.2194195605
  C         8.1446812829        1.7698230076       16.8331785845
  C         9.2085107758        2.1796689793       16.0193409161
  C         5.5886853775        1.3338594282       18.4022169254
  C         4.7178434465        2.4782787931       18.6938622571
  C         4.7813594004        2.9338881794       20.0261140343
  C         5.4655042952        2.2691310377       21.0358738370
  C         6.4054625640        1.2924695723       20.7059416286
  C         6.4954975983        0.9206126879       19.3471162933
  H         8.3268418751        1.5537103988       17.9100999048
  H        10.1985649600        2.3587231819       16.5043166216
  H         4.1615629667        2.9897098255       17.9367209220
  H         4.2239935326        3.7832204745       20.1915868716
  H         5.2228960985        2.5297326339       22.0334102655
  H         7.0183422487        0.7608678680       21.4488275411
  H         7.2311688343        0.1040423631       19.0464863146
  C         4.6900018318        0.2715080924       14.7279459158
  C         3.6721494846       -0.4898668755       14.0388994980
  C         2.5737932286       -1.0000287831       14.7557504496
  C         2.6338808540       -1.1436564687       16.2194140998
  C         3.6595199940       -0.5095130051       16.9408017936
  C         6.7747120516        1.5851966175       14.7716291345
  C         5.6573408606        1.0809850552       14.0629172814
  C         5.6014803365        1.3955929968       12.6195266221
  C         4.7963431017        2.4917508930       12.1265076013
  C         4.8508919735        2.7014635143       10.7455792295
  C         5.7180776332        1.9725215354        9.9059301687
  C         6.5846527233        0.9783463922       10.4099209549
  C         6.4981561641        0.7026632078       11.7812198657
  H         7.0427989297       -0.1872671749       12.1076218535
  H         7.4037453644        0.5449228578        9.7953972931
  H         5.7979423938        2.2918244704        8.8549496221
  H         4.2956329221        3.5614746671       10.2911495811
  H         4.1249429727        2.9549828424       12.7806021018
  C         7.8612033641        2.2738796441       14.0750935292
  C         9.0460617151        2.4877655584       14.6345426743
  H         9.8531233042        2.8687545781       13.9952607108
  H         7.8588150790        2.3424998068       12.9934003051
  C         3.8338899906       -0.8577634165       18.3247738718
  C         4.7582944606       -1.8480687275       18.7727502361
  C         4.9077603583       -2.1623197379       20.1386123819
  C         4.0781375240       -1.6120459992       21.0856064097
  C         3.1747450476       -0.6148700302       20.6441112265
  C         2.9804341506       -0.3279912399       19.3125130513
  H         2.3481770160        0.5299090021       18.9507961740
  H         2.7057505791        0.0495094657       21.4257504588
  H         4.1855773787       -1.9480395128       22.1172733489
  H         5.6501340168       -2.9104861516       20.4049824187
  H         5.3680816229       -2.3932998066       18.1110870820
  C         1.6626709849       -1.9988171723       16.8418742360
  C         0.6938554717       -2.6293271008       16.1133494025
  C         0.6005097171       -2.5070097333       14.7334582331
  C         1.5536171401       -1.7289262946       14.0728027506
  H         1.5290309489       -1.7161136498       12.9621681441
  H        -0.1483795303       -3.0480598896       14.1334279370
  H        -0.0833099629       -3.2308296263       16.6331719991
  H         1.8781383341       -2.1763009744       17.9143125892
  C         3.8558937947       -0.9282929333       12.6099128639
  C         4.8097740335       -1.9550447620       12.3685417210
  C         4.8524249376       -2.4108524953       11.0604792008
  C         4.0363898697       -2.0112328602       10.0308798340
  C         3.0880714539       -1.0323956561       10.3360661130
  C         3.0628063156       -0.3653152261       11.5694149584
  H         2.3870726860        0.5153709618       11.6534974367
  H         2.5448008692       -0.5533778926        9.5077107218
  H         4.2821654247       -2.3880549577        9.0376272853
  H         5.6341492959       -3.1407755628       10.8018422812
  H         5.5221935690       -2.3081714064       13.1327180521
  C         1.3392076936        7.2070793893       15.8247025475
  C         0.3400593230        7.9287500462       16.5643398628
  C        -0.8365090115        8.2850588541       15.9343504820
  C        -1.9237452989        8.8975604699       16.6503502154
  C        -2.9297742786        9.6143284360       16.0142972039
  C         0.4664519894        8.3573079629       17.9300134026
  C         1.3862285044        9.3164705402       18.3510959460
  C         1.4731706714        9.6598379967       19.7411988431
  C         0.5918458714        9.0982581431       20.6138374287
  C        -0.3395951145        8.1632893284       20.1802833558
  C        -0.4198398939        7.7452631978       18.8760218527
  H        -2.0136466659        8.8154788794       17.7543503966
  H        -3.6725012369       10.1610147427       16.5622651141
  H         2.0088196983        9.8853294441       17.6590156917
  H         2.0157282658       10.5854611265       20.0286223234
  H         0.6655638895        9.3965814212       21.6453823123
  H        -1.0163361224        7.7817416229       20.8919363108
  H        -1.1467385547        6.9996268785       18.6401248085
  C         1.2048614293        7.1253205622       14.3903063606
  C         2.2328973032        6.4757089373       13.6371312455
  C         3.3975632640        6.1061961484       14.3533056854
  C         3.4072122364        6.0684032136       15.8010519812
  C         2.3312082119        6.5973466480       16.5695272369
  C        -0.8890067636        8.4067249125       14.4944739636
  C         0.1494093555        7.7939231729       13.7129830779
  C         0.2098166489        8.2144688846       12.2905893536
  C         1.1198514558        9.2284097863       11.9839355258
  C         1.0633632567        9.9045844526       10.7662205570
  C         0.2811002789        9.4206696604        9.7050650552
  C        -0.4807867201        8.2429105320        9.9527732921
  C        -0.5462859006        7.7053997805       11.2058664055
  H        -1.1459943126        6.8238101742       11.3723923455
  H        -1.0442223524        7.8861488729        9.1124001248
  H         0.1485034044        9.8452496375        8.7539319383
  H         1.6260606514       10.8069467780       10.6691991584
  H         1.6554632853        9.7257380080       12.7961182951
  C        -2.0188912501        9.0807781351       13.8671689837
  C        -2.9714543710        9.6867630791       14.5938222446
  H        -3.8240416188       10.1928311588       14.0741474046
  H        -2.0902331525        9.1526859394       12.7659324266
  C         2.3074827634        6.2082340589       17.9928926694
  C         1.4375449436        5.2135093458       18.4572966908
  C         1.4120463010        4.9000853662       19.8543257241
  C         2.2580829884        5.5850654581       20.7344687642
  C         3.2031132042        6.4747986379       20.2238118631
  C         3.2148543797        6.8233101558       18.8458682353
  H         3.9035653841        7.5236776077       18.5149051256
  H         3.9165324349        7.0559093984       20.8137347102
  H         2.2320111524        5.3581729653       21.8037896382
  H         0.8196987347        4.1105118966       20.3456392732
  H         0.6364125486        4.8074334111       17.7640423369
  C         4.4585316755        5.4064400545       16.5173156622
  C         5.3579813310        4.5709512011       15.8962914386
  C         5.3904472478        4.6690851212       14.4238444002
  C         4.5258114173        5.4723624600       13.7166211549
  H         4.5476150004        5.4992258549       12.6109268410
  H         6.1935839225        4.1582699370       13.9172701158
  H         6.1112590752        3.9957749383       16.4032654676
  H         4.4126542573        5.5425878238       17.5636062842
  C         2.2386005081        6.0405058196       12.2323804989
  C         1.3494970080        4.9698557991       11.9097511538
  C         1.3019161125        4.5813889706       10.5632290626
  C         2.0376120511        5.2319256514        9.5808872389
  C         2.8818910438        6.2901259273        9.8850236967
  C         3.0513422784        6.6705302438       11.2180201359
  H         3.6719883797        7.4523822504       11.4974880915
  H         3.4715927065        6.7336397031        9.1049378551
  H         1.8603234014        4.9725122364        8.5150427275
  H         0.7783693714        3.6974096614       10.2080151332
  H         0.5975547196        4.5774869223       12.5848144101
