140

  C         5.6714114855       -0.3192513006       16.3668063278
  C         6.7458433743        0.4032608317       17.0537945859
  C         7.7861308246        0.9612220207       16.3104949497
  C         8.9344716127        1.6469433063       16.9204166004
  C         9.9704379699        2.1657283121       16.2005701966
  C         6.5922767560        0.8157319086       18.5043035246
  C         5.8936731791        2.0049362006       18.7605355010
  C         5.8750138500        2.5312342232       20.0665416160
  C         6.5629435659        1.8991255465       21.0777052730
  C         7.3561430547        0.7556529866       20.8025810919
  C         7.2693368447        0.1666918635       19.5471600727
  H         9.0608377800        1.6492600318       18.0375438767
  H        10.7725195118        2.5855068320       16.7270625517
  H         5.6426681588        2.6447699169       17.9652561895
  H         5.2742875947        3.4223458239       20.2650436311
  H         6.6470169372        2.4681799469       21.9943998734
  H         7.8485524234        0.2229690438       21.5977638155
  H         7.7607312268       -0.7714706696       19.3037762788
  C         5.6105359483       -0.2593536604       14.8498089107
  C         4.6712740547       -1.0509103968       14.2124464836
  C         3.7197684018       -1.7315488930       14.9927174628
  C         3.7402891986       -1.7646823695       16.4070303452
  C         4.7101112121       -1.0556650266       17.0963569468
  C         7.7372613846        0.9334985702       14.8589772343
  C         6.5961799892        0.5042112764       14.1408810587
  C         6.5978430254        0.7730476814       12.6358278560
  C         5.8849123281        1.8411772667       12.0477718690
  C         6.0597086495        2.3077489187       10.7358911341
  C         6.8910667471        1.4849009179        9.9401062682
  C         7.6127592883        0.4144141900       10.4778721833
  C         7.4006597771       -0.0120411116       11.8243693178
  H         8.0069350504       -0.7576968997       12.2745081873
  H         8.4422417966       -0.0415347451        9.9713850135
  H         7.0069727171        1.6688097733        8.8815991353
  H         5.4880503988        3.1635555825       10.3350066424
  H         5.2084344025        2.3720233227       12.7524031414
  C         8.8837238034        1.4766465819       14.1559878051
  C         9.9494623829        2.1022197041       14.8382465261
  H        10.8010955239        2.5958754511       14.3671761199
  H         8.9292417527        1.4655624833       13.0602332960
  C         4.7760796709       -1.2915015602       18.5838939186
  C         5.3545104178       -2.4894791567       19.1439525204
  C         5.1967291490       -2.8328111511       20.4413646629
  C         4.4229300306       -1.9855608932       21.3303614762
  C         3.8230095686       -0.8631173752       20.7605922040
  C         3.9388603148       -0.5614791368       19.4050826222
  H         3.3914599918        0.3101132184       18.9868961392
  H         3.2445926962       -0.1975926884       21.3882403728
  H         4.2390879533       -2.2397839175       22.3920923136
  H         5.5423550775       -3.7995131142       20.7664881241
  H         5.9702733632       -3.0820894512       18.4512404724
  C         2.6305874776       -2.4388969605       17.0463126293
  C         1.6365646199       -3.0562110759       16.3215358990
  C         1.6687989298       -3.0043576565       14.9038345603
  C         2.7156394850       -2.4165022057       14.2752334135
  H         2.7612975260       -2.4430295334       13.1681644353
  H         0.9450147114       -3.4818693578       14.2793924038
  H         0.8790232234       -3.5275677195       16.8689309167
  H         2.6029444944       -2.5398836530       18.1278054085
  C         4.8458443918       -1.4015839514       12.7169842925
  C         5.6325778835       -2.4992584085       12.5400075312
  C         5.9067512753       -2.9784129304       11.2438984402
  C         5.1377253016       -2.4462017220       10.1542981481
  C         4.1576059937       -1.5542320708       10.4418718634
  C         4.0390999706       -0.9943581026       11.6867557798
  H         3.3319259512       -0.1384026223       11.6326010777
  H         3.5432453094       -1.2151510439        9.5568765461
  H         5.3358452272       -2.8645778165        9.2002086490
  H         6.6231268676       -3.7630388496       11.0922798905
  H         6.1227167486       -2.7959285581       13.4615249996
  C         2.1575239658        6.8230881861       16.1992528417
  C         1.1760117187        7.4661366247       16.9551643735
  C         0.0136975005        7.9108278482       16.2080648879
  C        -1.1041621044        8.6252512705       16.7742089452
  C        -2.1644290486        9.0615483311       16.0141788094
  C         1.2620529667        7.8559672730       18.3768793882
  C         2.0771997376        8.9578685612       18.7096674344
  C         2.2624155971        9.3802397000       20.0094199274
  C         1.4978058931        8.6950382270       21.0299000468
  C         0.7516491535        7.5562660534       20.6953055269
  C         0.6671444356        7.1250531123       19.4004118294
  H        -1.1008386565        8.9220038888       17.8235932535
  H        -2.9679973384        9.6652215486       16.5238682499
  H         2.7554769385        9.3451935099       17.9877760108
  H         2.7884423045       10.2796357898       20.3141062948
  H         1.6221874765        8.9648570382       22.0669083109
  H         0.2256223007        7.0415897209       21.5427926837
  H         0.3159947519        6.1559309510       19.0352077358
  C         2.1673855270        6.6962830743       14.7104644996
  C         3.1781056906        6.1086848627       13.9167678820
  C         4.3498743541        5.6997598803       14.5766090676
  C         4.3541257335        5.6974173530       16.0686468856
  C         3.2727592580        6.1548105751       16.8684764429
  C         0.0177621185        7.8296660243       14.7317447351
  C         1.0489369577        7.2923135524       13.9847791955
  C         1.1142771928        7.5672419119       12.5308313743
  C         1.7328171408        8.7715168145       12.2134009624
  C         1.7936141845        9.2534173699       10.8982939783
  C         1.1291559498        8.4954846437        9.8844061380
  C         0.5348023334        7.3010127143       10.1754369136
  C         0.6081147323        6.7598386740       11.4828413885
  H         0.2794588647        5.8015263073       11.7472907479
  H         0.0682811157        6.7168235436        9.3405180349
  H         1.0933330506        8.8467612772        8.8536592962
  H         2.2943531912       10.1968918047       10.7648135331
  H         2.1434535542        9.2853908898       13.1355960911
  C        -1.0841179495        8.4065603247       13.9791207361
  C        -2.2020732567        8.8722313096       14.6002609299
  H        -2.9981641486        9.3140931666       13.9729126023
  H        -1.1280004125        8.3308241782       12.9113677548
  C         3.1206231159        5.5838906326       18.2163739641
  C         2.5825581042        4.2938254863       18.3952937767
  C         2.6285464753        3.5951037596       19.6042308078
  C         3.2260169349        4.2062164927       20.7081928520
  C         3.5920200012        5.5679333054       20.6084028240
  C         3.6724828385        6.1721563207       19.3118540803
  H         4.1802832966        7.1143766669       19.1649473727
  H         3.8482568933        6.0979171614       21.5252078974
  H         3.1815930742        3.7348417618       21.6941031862
  H         2.2196393454        2.5991779814       19.7362696018
  H         2.3751289485        3.6653671731       17.5370670375
  C         5.3991671847        4.9740203008       16.7526685033
  C         6.3295181153        4.2755876778       15.9788313365
  C         6.4227618769        4.4209573814       14.5789970540
  C         5.5148364089        5.1917393720       13.8625167666
  H         5.5863726294        5.3452637535       12.8005564870
  H         7.3329433550        3.9788376751       14.1053637294
  H         7.0389172423        3.6094207172       16.4041621162
  H         5.3448759641        4.7642637780       17.8378815799
  C         3.0098126303        5.6485555135       12.4755763692
  C         2.3450167558        4.4807213449       12.3305921122
  C         2.3434121167        3.7473115660       11.1190387598
  C         2.9697080117        4.3424837410       10.0509044881
  C         3.6456245478        5.5543948304       10.1096287506
  C         3.7732164548        6.1547005406       11.3568018975
  H         4.3298591089        7.0452390860       11.6190317328
  H         4.2416689649        5.8377505445        9.1894831630
  H         3.0037614665        3.7509180925        9.1551511481
  H         1.8159389711        2.8071835109       11.0172762924
  H         1.9499627070        4.0548240232       13.2086921999
