140

  C         3.0937740221       -0.0408892338       14.7017835438
  C         4.1195093986        0.6098960023       15.4519052559
  C         5.1995406144        1.1994372823       14.7242863344
  C         6.2129680890        2.0426506934       15.3775878712
  C         7.2515259132        2.5996426371       14.6843211951
  C         4.1997440359        0.9489491034       16.9289270668
  C         3.3963661660        2.1050060024       17.2368858907
  C         3.4755992970        2.5825777730       18.5990098702
  C         4.2055525417        1.8819217047       19.5897499125
  C         4.9578937170        0.7539036465       19.2625972162
  C         4.9378916308        0.3118411562       17.9026362972
  H         6.1208882265        2.1599607349       16.4932390000
  H         8.0068445626        3.3032501155       15.1426503191
  H         2.6954741431        2.3920991012       16.4806223899
  H         2.8034978894        3.3788972926       18.9234530547
  H         4.1360349720        2.2291862244       20.6579866625
  H         5.5015602163        0.2494954633       20.0649191249
  H         5.5668343111       -0.4843718347       17.5185123500
  C         3.1186463569       -0.1309368515       13.2128751904
  C         1.9985099233       -0.7378994347       12.5300147801
  C         0.8711727480       -1.1592263685       13.2452083481
  C         0.9035141526       -1.0729191804       14.7618526503
  C         2.0304027558       -0.5961511850       15.3783739737
  C         5.1851595084        1.2265177795       13.2971963346
  C         4.0874625201        0.6475975167       12.5689890440
  C         4.0003631986        0.9062098576       11.0816644347
  C         3.3339289405        2.0550390202       10.6629079524
  C         3.3688714382        2.6000450672        9.3646165866
  C         4.2093328962        2.0038082782        8.4537829939
  C         4.9853490270        0.8871106904        8.8702963911
  C         4.8941562009        0.3255739908       10.1480850806
  H         5.4200358295       -0.6153913513       10.3183393631
  H         5.6800133515        0.3773434815        8.2082236936
  H         4.2689822680        2.3519979510        7.4242019595
  H         2.7622201233        3.4728472150        9.1992316038
  H         2.5619919778        2.4504833306       11.3374920665
  C         6.3201417869        1.8067225193       12.5809810780
  C         7.3361885249        2.4903696952       13.2791128755
  H         8.0492193058        3.0715180285       12.7208770760
  H         6.3252112440        1.7027666151       11.4830444909
  C         2.0745472281       -0.8895220130       16.8533860906
  C         2.7788845588       -2.0469915403       17.2946236210
  C         2.6213446860       -2.4853963094       18.6303765379
  C         1.9182380207       -1.6647043949       19.5318147431
  C         1.2429061196       -0.4888698064       19.1221869755
  C         1.3613771392       -0.1225900584       17.7606310659
  H         0.8626779397        0.7720778001       17.3939980305
  H         0.6997916082        0.1382908076       19.8796110268
  H         1.8168516871       -1.8291306365       20.6354688983
  H         3.0500730040       -3.3749292731       18.9935049959
  H         3.2561173447       -2.7101960400       16.5925584107
  C        -0.1983930166       -1.8011501649       15.4610397575
  C        -1.2738367497       -2.2809917340       14.7898972988
  C        -1.3205359985       -2.2441802997       13.3584015153
  C        -0.2641423064       -1.8109625783       12.6463715586
  H        -0.3104374067       -1.8511480274       11.5641458123
  H        -2.1036076851       -2.9075102374       12.9376267234
  H        -2.1388305109       -2.6757028538       15.3202921950
  H        -0.1571747868       -1.6727669427       16.5129251902
  C         2.0527759116       -0.9946923702       11.1188547406
  C         2.9145501452       -2.0833500936       10.8423433584
  C         3.1129064101       -2.4534252877        9.5037221251
  C         2.4922364775       -1.7219091834        8.5257495908
  C         1.5632651424       -0.7172399656        8.8134105529
  C         1.3223654125       -0.3287599912       10.1444523268
  H         0.6931666377        0.5004225756       10.4006474691
  H         1.1095278879       -0.2657737268        7.9580375278
  H         2.6259440925       -2.0420316773        7.5125864700
  H         3.7959189444       -3.2316568061        9.2095246504
  H         3.3999196502       -2.5193238292       11.6900832912
  C        -0.5559836928        7.1586215693       14.8011618835
  C        -1.4834839678        8.0032614124       15.5284303973
  C        -2.5644461946        8.5679309233       14.8170284904
  C        -3.6928052706        9.1927340350       15.4534031207
  C        -4.7822897124        9.6755817705       14.7702081032
  C        -1.3324305654        8.4397869779       16.9198640986
  C        -0.5005290825        9.4660115401       17.3070595918
  C        -0.5734496706       10.0385547451       18.5911816245
  C        -1.4567641490        9.4691078758       19.5040393833
  C        -2.1950646556        8.3258415501       19.1991370425
  C        -2.1620774032        7.8181150446       17.8859734088
  H        -3.9184185929        9.0316982472       16.5100819577
  H        -5.6117081601       10.1349800269       15.2428416483
  H         0.1500751147        9.8624940469       16.5673310374
  H        -0.0318628922       10.9085120623       18.9203250012
  H        -1.5719211408        9.9509834252       20.4592074479
  H        -2.7430559127        7.8150039043       19.9874180702
  H        -2.6467862727        6.9512974410       17.4995741462
  C        -0.5738867831        7.2056364993       13.3493985221
  C         0.4397051269        6.5202593626       12.6429675443
  C         1.5453317167        5.9312787041       13.3093230048
  C         1.5672180561        5.8933277292       14.6945738962
  C         0.4665372862        6.4544462219       15.4287962790
  C        -2.6430569510        8.4876139026       13.3777770587
  C        -1.6125445874        7.8810759483       12.7020596526
  C        -1.5694329004        8.2293484671       11.2561852318
  C        -0.7176759117        9.3474782109       10.9819004254
  C        -0.5419764694        9.7073382585        9.6658565760
  C        -1.2919645316        9.1008811333        8.6412553437
  C        -2.1571588889        8.0288467921        8.9877156605
  C        -2.2642834346        7.5754888452       10.2820311151
  H        -2.9332916955        6.7440826993       10.5633466259
  H        -2.7266574728        7.5721930668        8.2178648556
  H        -1.2840041146        9.3771060149        7.5964053000
  H         0.1238452325       10.5626391477        9.4740114297
  H        -0.1528980012        9.8078376308       11.7718157273
  C        -3.7889737835        8.9425597895       12.6224608552
  C        -4.8026421775        9.5531121143       13.3470097769
  H        -5.6250807721        9.9827916685       12.8079506838
  H        -3.9338838208        8.8701948193       11.5431458533
  C         0.4194535657        6.0054938144       16.9237995197
  C        -0.4593102497        4.9068104301       17.3113585781
  C        -0.2730164379        4.2897470231       18.5482084287
  C         0.6092332406        4.8342500793       19.5088874021
  C         1.3962264575        5.9335865368       19.1695431366
  C         1.2717160516        6.5505329470       17.8711063091
  H         1.8831246464        7.4353041698       17.5969830616
  H         2.0997764334        6.2462957737       19.9275461503
  H         0.8818177098        4.2409517196       20.4030515042
  H        -0.8842283416        3.4326944190       18.8508164356
  H        -1.1270302351        4.4435413983       16.5656785658
  C         2.6311960820        5.3359148560       15.3519420682
  C         3.6656436654        4.7354196947       14.6949925772
  C         3.7171725270        4.6886917325       13.2605773101
  C         2.6626852205        5.3691326614       12.6181606630
  H         2.6520601449        5.3632409880       11.5700863709
  H         4.4872611022        4.1265739701       12.7330735780
  H         4.3642040910        4.2393389707       15.3333022911
  H         2.7211795932        5.2842069332       16.4025715103
  C         0.2871178246        6.2060797432       11.1953113018
  C        -0.2946965328        5.0418939184       10.7899999254
  C        -0.3789708817        4.7902634512        9.4228448276
  C         0.2183272100        5.6553781891        8.4278239763
  C         0.9335166909        6.7762536435        8.9109702682
  C         0.9116686244        7.0919227451       10.2503413145
  H         1.4624209229        7.9513098057       10.6101162539
  H         1.6124544837        7.3705239181        8.2723443157
  H         0.1607885874        5.3695061637        7.3851627674
  H        -0.8395353317        3.8924581282        9.0928445275
  H        -0.6592274248        4.2818931145       11.4536683025
