140

  C         2.1819977697        0.5229273475       14.4939299273
  C         3.1407369210        1.2062104546       15.2735955512
  C         4.2818038128        1.8063932525       14.6466353874
  C         5.3498938418        2.4918961291       15.3294924056
  C         6.4472078425        3.0597170420       14.5944315118
  C         3.1332282178        1.5601048294       16.7599673542
  C         2.3435881297        2.5432236704       17.3354581053
  C         2.4571644141        2.9000759332       18.7082494177
  C         3.4906987656        2.3078443851       19.4729034118
  C         4.2535678135        1.3023690285       18.8974348386
  C         4.1484223847        0.9307974326       17.5776120706
  H         5.4519361071        2.6284658427       16.3651936268
  H         7.1903743328        3.6625723332       15.0567402159
  H         1.7167339496        3.0765730603       16.6335386677
  H         1.9652439000        3.8236385298       18.9898980936
  H         3.7353551869        2.5133642717       20.5372105031
  H         4.9969479934        0.8116297600       19.4724762895
  H         4.7810503258        0.1578470511       17.1712302513
  C         2.1864990523        0.5410748558       13.0344795756
  C         1.2685144965       -0.2701196358       12.3154525403
  C         0.2231565807       -0.9319385692       13.0500714057
  C         0.2627122788       -0.9912308784       14.4621710568
  C         1.2134410757       -0.2950851929       15.2139621860
  C         4.3207174369        1.8480926748       13.1742078743
  C         3.2564230471        1.2685987696       12.3750732906
  C         3.2696910478        1.5633171355       10.8783943317
  C         2.3839181200        2.5432651575       10.3779972169
  C         2.4654169066        3.0534143782        9.0454947647
  C         3.3699964336        2.4681235426        8.1116130727
  C         4.1846891968        1.4708580227        8.5997537622
  C         4.1973738307        1.0554227757        9.9372689566
  H         4.9122456058        0.2700786253       10.2215480301
  H         4.7419693753        0.9844227037        7.8926239378
  H         3.4621100956        2.8676608910        7.1211103275
  H         1.7367440953        3.8776957765        8.7424660165
  H         1.6035340754        2.9776270412       11.0039469200
  C         5.4272389714        2.5004024192       12.5279109439
  C         6.5288478295        3.0142962981       13.2125328694
  H         7.2851366595        3.5271825136       12.6379264027
  H         5.4642935637        2.6099401408       11.4052428461
  C         1.2833615299       -0.5951185418       16.7091785940
  C         1.9201277742       -1.7220217046       17.2790625704
  C         1.8980526998       -1.9335330148       18.6938410805
  C         1.0465850606       -1.1483960517       19.5110075858
  C         0.2717405507       -0.1548460427       18.9278143645
  C         0.4299187763        0.1674445469       17.5491843423
  H        -0.1557888199        0.9715212896       17.0585658604
  H        -0.3638038526        0.4023378738       19.5982238848
  H         1.1191264054       -1.1878896418       20.6026275893
  H         2.4844739580       -2.7288060081       19.0672221239
  H         2.3594942012       -2.4321611080       16.6113359612
  C        -0.8188299983       -1.7102761791       15.1284528992
  C        -1.8006320191       -2.3448227970       14.5124888995
  C        -1.8288553647       -2.2729453572       13.0788647384
  C        -0.8493031003       -1.6022795792       12.3945794751
  H        -0.8591135230       -1.6631240605       11.2781906707
  H        -2.5845839109       -2.7841937707       12.5550453898
  H        -2.6503188345       -2.8142152903       15.0492335229
  H        -0.7428476338       -1.7803545032       16.1913531787
  C         1.3631471306       -0.6539807906       10.8336471484
  C         2.2253518106       -1.7243135110       10.5519186560
  C         2.3048937523       -2.1701107545        9.2040445340
  C         1.3618054978       -1.7271041191        8.2668106026
  C         0.5845608116       -0.6300270688        8.5447364937
  C         0.5141169298       -0.1623779185        9.8999696661
  H         0.0075842454        0.7835235291       10.0192625482
  H        -0.0072421676       -0.2149898901        7.7396018519
  H         1.3987587668       -2.1737114272        7.2363330196
  H         2.8717875023       -3.1441821386        8.9658364877
  H         2.8852636064       -1.9440261606       11.4205040781
  C        -1.3377021993        7.7637133005       14.5821049165
  C        -2.4081477388        8.3698871622       15.3299813074
  C        -3.5445247988        8.8077217053       14.6493364793
  C        -4.7183500510        9.2428138502       15.3661790000
  C        -5.7595400263        9.7444089365       14.6705746836
  C        -2.3511773749        8.5897159785       16.8139986934
  C        -1.5629223800        9.7240107802       17.1666262500
  C        -1.6015884695       10.1975281439       18.4814946462
  C        -2.3185652213        9.4963373983       19.5170095702
  C        -3.1693815277        8.3828781259       19.1017957377
  C        -3.0931742581        7.9258597024       17.7982438792
  H        -4.6678384867        9.2921268241       16.4435610530
  H        -6.6566586981       10.1677290788       15.1432879488
  H        -0.9088141106       10.1552278927       16.4249902471
  H        -1.0093241702       11.0638628468       18.7128006604
  H        -2.3763210718        9.9347583411       20.5289179259
  H        -3.7706182704        7.8590328388       19.8644273234
  H        -3.7458653669        7.0549183686       17.5815408691
  C        -1.3601085964        7.8093482872       13.1042834021
  C        -0.4122583586        7.0784202209       12.3730541101
  C         0.6584794629        6.4635343920       13.0459194859
  C         0.8176957307        6.6385616287       14.5243490657
  C        -0.2759623646        7.0914026050       15.2944865653
  C        -3.5450914373        8.8942565562       13.1832747567
  C        -2.4648254320        8.4239672276       12.4672825289
  C        -2.3651736650        8.6427338315       10.9992592265
  C        -1.4860430009        9.6344635148       10.5750300270
  C        -1.3762274664        9.9805226047        9.2506332848
  C        -2.1789626074        9.3697274086        8.2807036791
  C        -3.1167048133        8.4128556840        8.7344947398
  C        -3.2169582273        8.0927837470       10.1217899578
  H        -3.9617915912        7.3967731246       10.4795019012
  H        -3.8354423617        8.0231980855        8.0440454361
  H        -2.1800320993        9.6928263147        7.2468038277
  H        -0.6542436174       10.7811520812        9.0026991276
  H        -0.9933817124       10.2568692853       11.3712052679
  C        -4.6522902242        9.4607230876       12.5392861012
  C        -5.7595703022        9.8316911061       13.2715517384
  H        -6.6410467572       10.2381811766       12.8103195963
  H        -4.6822644354        9.4475630541       11.4428621003
  C        -0.3859505590        6.6264238800       16.7122964821
  C        -1.1127654822        5.4477930443       17.0378065268
  C        -1.2696593018        4.9920597655       18.2952933759
  C        -0.6194063139        5.6558853219       19.3790587357
  C         0.2502509227        6.7586520027       19.0745316549
  C         0.3257741031        7.2143063720       17.7531483076
  H         0.8604181302        8.1308565323       17.5784655572
  H         0.8139383445        7.2314149673       19.8701501351
  H        -0.7309792005        5.4082340527       20.4374998254
  H        -1.9268215599        4.1267983018       18.5971955677
  H        -1.5665518147        4.9094979429       16.2231132588
  C         2.0457329804        6.1192534040       15.1495459010
  C         2.9835835303        5.5109660349       14.4388203052
  C         2.7719956504        5.2631929467       13.0479790654
  C         1.6234559469        5.6544741798       12.4327022578
  H         1.5165351284        5.4437027270       11.3827523670
  H         3.5266404533        4.7040918644       12.5148449144
  H         3.9782904321        5.3311936521       14.7801889717
  H         2.0940462368        6.2867002607       16.2347405593
  C        -0.6321636641        6.6260603753       11.0090423475
  C        -1.4165913863        5.4474198615       10.8091472620
  C        -1.6171973745        4.9210924247        9.4942470916
  C        -0.8567201476        5.5214927492        8.4299730088
  C         0.0376726009        6.5677446778        8.6489353691
  C         0.0542453472        7.1744688456        9.9404017665
  H         0.6793872526        8.0705399251       10.0846431815
  H         0.4809074940        6.9808244305        7.7424562925
  H        -0.9539615738        5.0770321434        7.3998905975
  H        -2.2562847716        4.0673081620        9.3187486697
  H        -1.8465632440        4.9808786822       11.7068530719
