140

  C        15.1397530875       -0.5112964296        0.5692517107
  C        16.2115561180        0.1090979042        1.2251598371
  C        17.3861462659        0.6136982162        0.5755902642
  C        18.3293220567        1.4604084380        1.2177260088
  C        19.3777942295        2.0066158477        0.4821453181
  C        16.0028545641        0.5042256939        2.6726260227
  C        14.9320680392        1.3378146137        3.0374727469
  C        14.7259475215        1.6712617182        4.3782681746
  C        15.6928130935        1.3903879821        5.3351945177
  C        16.8418383904        0.6060165966        4.9364586545
  C        16.9845161435        0.1657581219        3.6157910072
  H        18.2297841080        1.6432404602        2.2825013437
  H        20.0293373597        2.7271299402        0.9582584929
  H        14.2006572654        1.5632187103        2.3093232392
  H        13.7622735464        2.1639555107        4.6838877373
  H        15.5340578363        1.6977164762        6.3597686187
  H        17.6263342919        0.3429184734        5.6018278397
  H        17.8265261441       -0.5158503636        3.3451678118
  C        15.1412850946       -0.5191456296       -0.8747615270
  C        14.1198328682       -1.1704157187       -1.6060266802
  C        13.0079392689       -1.7007919443       -0.9656222320
  C        13.0348387755       -1.7620172305        0.4867050057
  C        14.0971767185       -1.2290029777        1.2250341180
  C        17.4322206706        0.4452718297       -0.8405235001
  C        16.2530312530        0.0406001557       -1.5164524810
  C        16.2291892504        0.4461753208       -2.9552810567
  C        15.6274040856        1.6804688416       -3.2969037554
  C        15.3828533645        2.1498364375       -4.5770774050
  C        15.9170100215        1.3983954290       -5.6502484509
  C        16.6652916930        0.2936637534       -5.3576613856
  C        16.7940731123       -0.2423086038       -4.0316334088
  H        17.3097041437       -1.2167997494       -3.8559068679
  H        17.1993585157       -0.1368043196       -6.1487161401
  H        15.7420850494        1.6624069122       -6.6947883763
  H        14.7721926879        3.0452822175       -4.7238886293
  H        15.1197920982        2.1247149900       -2.4425974599
  C        18.5525790278        0.9500259779       -1.5624583177
  C        19.5157516685        1.6610920269       -0.8597156838
  H        20.3639750988        2.1298298846       -1.3983858550
  H        18.6119497696        0.8628511882       -2.6120560027
  C        14.1016052224       -1.6387060669        2.6287262023
  C        15.0372937844       -2.6911224705        2.9486140671
  C        14.9944658218       -3.3348180351        4.1655290845
  C        14.2160416743       -2.8178595323        5.2166204451
  C        13.3942480575       -1.7048879020        4.9178966792
  C        13.3343833871       -1.1275447693        3.6449693862
  H        12.6790811840       -0.2200085837        3.5655769859
  H        12.8474933872       -1.2191416385        5.7907963287
  H        14.3482238626       -3.2538632192        6.2119607734
  H        15.8203768782       -4.1007077576        4.2504077726
  H        15.5671439984       -3.0632336965        2.1754793130
  C        11.9786469787       -2.5121903696        1.0455595104
  C        10.9295999440       -3.1125686602        0.3940822113
  C        10.8869732107       -2.9029640550       -1.0490972275
  C        11.8187822188       -2.1671321522       -1.6993088862
  H        11.7172763037       -1.9651387480       -2.7578069695
  H         9.9687903771       -3.2349159853       -1.4326175219
  H        10.1833033824       -3.7273242758        0.9450673109
  H        12.0870971304       -2.6554533466        2.0738238049
  C        14.2624115049       -1.5453935263       -3.0892980405
  C        15.0877179165       -2.6761129793       -3.4293345635
  C        14.9881245577       -3.1915606656       -4.7533373560
  C        14.2616462289       -2.4648434097       -5.7335368522
  C        13.6258076812       -1.2631839487       -5.3803296494
  C        13.5025018731       -0.8854145463       -4.0407704411
  H        12.9458004552        0.0088391751       -3.8571178851
  H        13.0934641031       -0.6883949721       -6.0982360814
  H        14.2618171908       -2.7848465165       -6.7588603331
  H        15.5124486670       -4.1856026272       -4.8707118759
  H        15.4326283877       -3.2956851869       -2.5590883797
  C        11.4512671189        6.7507854819        0.6724282000
  C        10.3955559563        7.4998715966        1.3411973527
  C         9.2695571471        7.8803303752        0.5882283775
  C         8.1791956661        8.5818939890        1.2546088026
  C         7.0749829061        9.0370526641        0.6097510196
  C        10.3823107057        7.9024015556        2.7623347944
  C        11.0636131053        9.0747135826        3.1860669567
  C        10.9890488075        9.4558787376        4.4921568100
  C        10.2107259801        8.7951628101        5.4224691867
  C         9.5417697212        7.5685003037        5.0660926196
  C         9.5962985801        7.1707782532        3.7263980011
  H         8.1378911263        8.7584847352        2.3240383345
  H         6.2239906083        9.5094400240        1.1098352647
  H        11.5642617435        9.6970820250        2.3519924297
  H        11.4387889455       10.3902223944        4.7674663793
  H         9.9858485651        9.2236689010        6.4055857665
  H         8.9521369961        7.0566594424        5.7669621564
  H         9.0273648425        6.3846663722        3.3125063711
  C        11.5165593670        6.7467958521       -0.7955501946
  C        12.5883734810        6.0220281900       -1.4866534449
  C        13.6406307426        5.3573626250       -0.7551907983
  C        13.4395898119        5.3666520289        0.6871250457
  C        12.4362257692        6.0693012322        1.4155334141
  C         9.1944019941        7.6412672453       -0.8349668990
  C        10.3853634209        7.2378537358       -1.5490029162
  C        10.4418103870        7.5340251205       -2.9681746380
  C        11.1528970194        8.6539555575       -3.4261170550
  C        11.0522679508        9.1112077500       -4.7395597821
  C        10.3480203862        8.3533299695       -5.7216496101
  C         9.6045964331        7.2897362749       -5.2499781814
  C         9.5990180273        6.8909870847       -3.9410600620
  H         8.8443429884        6.1573016800       -3.5529091521
  H         8.9931717468        6.7707096749       -6.0281994392
  H        10.4251602816        8.6863194865       -6.7413982845
  H        11.6531069819        9.9263541963       -5.0264590642
  H        11.7925380652        9.2029389925       -2.7249237011
  C         8.0006445064        8.1512942337       -1.4497044067
  C         6.9764487361        8.7591677094       -0.7740172388
  H         6.1181173422        9.1873529406       -1.2765345282
  H         7.8070998891        7.9955290714       -2.4680054976
  C        12.3904047617        5.8565784757        2.8989521025
  C        11.6790078618        4.7606555838        3.5335677436
  C        11.8875159736        4.4574196075        4.9243196264
  C        12.7696361259        5.2258396360        5.6781662346
  C        13.3180705747        6.3859704490        5.1052979029
  C        13.0725162738        6.7385395143        3.7702819032
  H        13.4859714835        7.6977603412        3.4029734977
  H        13.8794478187        7.1282332826        5.6818668784
  H        12.8943824788        4.9858116401        6.7355123820
  H        11.3978234390        3.5262077563        5.3264173770
  H        11.1921515985        3.9171554828        2.9629809951
  C        14.4495467803        4.6675291467        1.4705007944
  C        15.4345520083        4.0213777289        0.9205511384
  C        15.5997097271        3.9474826754       -0.4916244303
  C        14.7242413175        4.6227502283       -1.2532870100
  H        14.8288411444        4.5802243246       -2.3089369152
  H        16.2509179431        3.1173508638       -0.7823906408
  H        16.1840688377        3.4324192481        1.5321491500
  H        14.3783207676        4.7525043192        2.5749485849
  C        12.6964655067        5.7306365794       -2.9625223520
  C        11.9688653004        4.5974517305       -3.4382262716
  C        12.0192781066        4.2255346323       -4.7724966538
  C        12.8340032120        4.9373497234       -5.6603694090
  C        13.5482995311        6.0595317242       -5.1713604040
  C        13.4663080927        6.5112914816       -3.8959874364
  H        14.0821049794        7.3429627153       -3.5479091205
  H        14.1096388625        6.7583342949       -5.7733652375
  H        13.0533141182        4.7472639220       -6.7791562075
  H        11.4672776553        3.4066844107       -5.0721830812
  H        11.4523525472        3.9222445791       -2.7422337206
