140

  C         4.5340450764       -1.2753658417       14.0415487088
  C         5.6288719396       -0.6311157496       14.7563771103
  C         6.7166677137       -0.0422522714       14.0251329465
  C         7.8432976376        0.6573212193       14.6669173473
  C         8.8206842311        1.2666528272       13.9762175107
  C         5.5779267030       -0.4385245082       16.2824513560
  C         4.9054915407        0.6963223486       16.7594202882
  C         5.0849862442        1.1785470856       18.1084130423
  C         5.9148276973        0.4221898473       18.9944064343
  C         6.6174174155       -0.6703543699       18.4336917117
  C         6.4781335365       -1.0630906643       17.1219662593
  H         7.8911251348        0.6549038876       15.7077323437
  H         9.6419027773        1.7769615484       14.4980145512
  H         4.2630002656        1.2410438747       16.0316431717
  H         4.5822018169        1.9953398789       18.6558015054
  H         5.9459697598        0.6823531387       20.0501029936
  H         7.3129575819       -1.2070521759       19.1007520664
  H         7.2121562653       -1.8299571810       16.7520572748
  C         4.6237268302       -1.4563331636       12.5704699512
  C         3.6417926260       -2.1518113413       11.8509374865
  C         2.5061685941       -2.6786451306       12.5117475293
  C         2.3756684689       -2.5589664891       13.9534930279
  C         3.4587227562       -1.9727713111       14.7225271570
  C         6.6793054166       -0.0667024176       12.6091750647
  C         5.6869768064       -0.7975566787       11.8428175239
  C         5.6160697767       -0.4740871521       10.4086754733
  C         4.7880989082        0.6014039985        9.9539237725
  C         4.8300818403        1.0923672559        8.6545980623
  C         5.7812517266        0.4756303328        7.7998573611
  C         6.7000586021       -0.5390756761        8.2082693740
  C         6.6029240796       -1.0474170859        9.5310912022
  H         7.3692793078       -1.6760097364        9.9792516667
  H         7.3796812389       -0.8591830762        7.4788627147
  H         5.7584207863        0.7786843483        6.6920629656
  H         4.2117787615        1.9013879064        8.2566447960
  H         4.1430477322        1.0461646829       10.7084535775
  C         7.7084733806        0.7394463827       11.8823429913
  C         8.7619861908        1.2774786196       12.5997284131
  H         9.6290378340        1.6442377136       12.0937096854
  H         7.6657264182        0.7085901164       10.7773811601
  C         3.4716010265       -2.3180194464       16.1602332434
  C         4.4054500669       -3.2675235288       16.6093279202
  C         4.5828480542       -3.6755245029       17.9362368630
  C         3.8220865294       -3.0563538959       18.8776614598
  C         2.8721125827       -2.1349657239       18.4941145471
  C         2.6458486053       -1.8117521554       17.1705541042
  H         1.7787075276       -1.2045471415       17.0104447251
  H         2.2544260251       -1.7944983704       19.2871313871
  H         3.7440674442       -3.3165337758       19.9309034389
  H         5.3141568950       -4.4672011823       18.1788820283
  H         5.0397816991       -3.7754593192       15.8636325634
  C         1.1941202090       -3.1149197222       14.6648681984
  C         0.2496785947       -3.8098902504       13.9996924263
  C         0.3531461982       -3.9529137823       12.5891266744
  C         1.4401529157       -3.4673895938       11.8645685032
  H         1.4733844076       -3.6160873381       10.8034533939
  H        -0.3965989491       -4.5817491222       12.0354987338
  H        -0.5632064892       -4.2391283377       14.6275870424
  H         1.1843864528       -3.0420008333       15.7620111992
  C         3.8147683282       -2.5791868024       10.4174953318
  C         4.6332721009       -3.6818267079       10.1389473126
  C         4.7239317458       -4.0901711758        8.8176900284
  C         3.9506744487       -3.4985654598        7.7913575535
  C         3.1514623970       -2.4387095544        8.0878999004
  C         3.0816497590       -1.9200491516        9.4232715761
  H         2.5281121630       -0.9479864288        9.5453500719
  H         2.5755672705       -1.9884584729        7.2469751063
  H         3.9215090296       -3.7740120277        6.7566346451
  H         5.4591305876       -4.8884412384        8.5819380475
  H         5.2450637814       -4.2249385513       10.8524362086
  C         1.0072165517        5.7546748586       14.1069318857
  C        -0.0389324507        6.5356295351       14.6975014478
  C        -1.0889808840        7.1258244457       13.9043077746
  C        -2.2015960191        7.8190497382       14.5573461568
  C        -3.1311864049        8.4811766674       13.7701631337
  C         0.0112897054        6.8602673853       16.2276840668
  C         0.7498975475        7.9748115243       16.5693975141
  C         0.7819231792        8.3772597609       17.9146683012
  C        -0.0307388520        7.7720632010       18.8398852803
  C        -0.8192637075        6.6371612161       18.4685457552
  C        -0.7696706372        6.2219396304       17.1680707793
  H        -2.4008241766        7.7453496101       15.6443593120
  H        -4.0323425904        8.9405279073       14.2586258496
  H         1.5256460436        8.4680116945       15.9682889073
  H         1.4187679864        9.2299474495       18.1971556152
  H        -0.0770797167        8.2191406106       19.8116774375
  H        -1.4193528413        5.9810290836       19.1902731983
  H        -1.2991345223        5.3098608507       16.8662211169
  C         1.0389367792        5.7959671909       12.5779899085
  C         2.1066492305        5.1648329430       11.8300267949
  C         3.1646493545        4.6798849401       12.6155900259
  C         3.1623811247        4.6796799841       14.1151316181
  C         2.1178842079        5.2367765798       14.8027995217
  C        -1.0998405565        7.0260769720       12.4717770750
  C         0.0077637213        6.4460109603       11.8282159443
  C         0.0974732402        6.8018839485       10.3059790170
  C         0.9001445036        7.9029956050        9.9112102267
  C         0.8771332809        8.3236537925        8.5548505384
  C         0.1521363701        7.6117302196        7.6234009715
  C        -0.6473404622        6.5204048672        8.0332170174
  C        -0.6935597526        6.1618391214        9.4165316803
  H        -1.1813362150        5.2634650384        9.7312001529
  H        -1.0797451469        5.8307900099        7.3413561555
  H         0.2130970319        7.9083809469        6.5602523765
  H         1.5106417538        9.1587723354        8.2272108974
  H         1.5092040621        8.3460360471       10.6552912045
  C        -2.0068369320        7.7415144164       11.7526046899
  C        -3.0164731306        8.4791760050       12.3789750322
  H        -3.6853180531        9.0754098462       11.7251586636
  H        -1.8712852204        7.9739242597       10.7129292217
  C         2.1195393243        4.8879044748       16.2729588044
  C         1.4567486770        3.7265910892       16.7069996740
  C         1.4941804243        3.2795036144       18.0450475532
  C         2.4132845989        3.9086887993       18.9428989595
  C         3.2166805734        5.0240866775       18.4878948666
  C         3.0049513093        5.5705992380       17.1898862184
  H         3.6897867921        6.2788330092       16.8140288249
  H         3.9785277610        5.5092593509       19.1104030182
  H         2.5650169430        3.5161236864       19.9169759238
  H         0.9438253723        2.3850421776       18.2442873192
  H         0.6655733381        3.2255986959       16.1200378432
  C         4.1864126127        3.9570843951       14.8212610835
  C         5.1968371515        3.3482402660       14.1880153486
  C         5.2208914296        3.3136932767       12.7710651073
  C         4.2589021031        3.9541538240       12.0705160214
  H         4.3272554677        3.8302705221       10.9556585659
  H         6.0309237292        2.7340118393       12.3092431931
  H         5.9603883007        2.7712009667       14.7448127373
  H         4.2150994760        3.9174303455       15.8886909612
  C         1.9971344365        4.8077264308       10.3621304776
  C         1.3011884606        3.6132778322       10.0424864964
  C         1.2847559085        3.0654060328        8.7601180703
  C         1.9671594415        3.7284314166        7.7608774895
  C         2.7801350829        4.8573290467        8.0862350608
  C         2.7587708914        5.4050828552        9.3352669252
  H         3.3460316892        6.2919601272        9.4687449250
  H         3.4128463216        5.3901894314        7.3482427081
  H         1.6895045348        3.4322166943        6.7440689256
  H         0.6555074484        2.1616491241        8.5771259650
  H         0.6568771442        3.1783442241       10.8776545899
