140

  C        14.7763462183       -0.4130413137        0.7362884652
  C        15.8185370338        0.2615912009        1.4344430617
  C        16.8611628516        0.9025470167        0.6779544235
  C        18.1334846180        1.2786349294        1.2754604351
  C        19.1828655507        1.8074760553        0.5235868351
  C        15.9509552837        0.4392046842        2.9107575917
  C        15.3393958581        1.5083800732        3.5408803909
  C        15.5574593582        1.7053849118        4.8863313430
  C        16.4651874411        0.9361123397        5.6378153531
  C        17.1324875888       -0.1202856035        4.9720983220
  C        16.9442993172       -0.3345014991        3.5996241382
  H        18.2388737993        1.1068056264        2.3753128767
  H        20.0739273357        2.1111816300        1.0284568882
  H        14.6316164220        2.1291241149        3.0169042681
  H        15.1721643369        2.6304958763        5.2603130911
  H        16.6702619882        1.0074721271        6.7133084348
  H        17.8626710268       -0.7240868811        5.5751810202
  H        17.4594574088       -1.1104562375        3.0160457284
  C        14.6985984933       -0.3808286174       -0.6655649072
  C        13.6865781433       -1.0076913130       -1.4009535707
  C        12.6171235603       -1.6210180840       -0.7673457580
  C        12.6959118882       -1.7063568022        0.7344913790
  C        13.7580844473       -1.1844346912        1.4363112614
  C        16.8399269242        0.9282378661       -0.7496766972
  C        15.7334356240        0.3612949705       -1.4587415745
  C        15.5877510148        0.7476168483       -2.9278518662
  C        14.6847514288        1.8063532637       -3.0830928251
  C        14.4182652845        2.3286426062       -4.3575874501
  C        15.2049216952        1.9272824442       -5.4722522913
  C        16.0477750444        0.7939640086       -5.3697471561
  C        16.2415744045        0.2141787719       -4.1174094640
  H        16.9504507766       -0.5915264866       -4.1137678034
  H        16.5309961915        0.4041969062       -6.2863341229
  H        15.0179129483        2.3662778161       -6.4439412230
  H        13.7799491355        3.2121277881       -4.3488496172
  H        14.2233649717        2.2387655163       -2.1841365700
  C        17.9199717409        1.5730473835       -1.4877431212
  C        19.0370975018        2.0538234981       -0.8803269607
  H        19.8228740963        2.6031284905       -1.4591474089
  H        17.7794317383        1.7309536970       -2.5809189983
  C        13.8001135913       -1.4674069109        2.9084646335
  C        14.5389659750       -2.5682411001        3.4334653452
  C        14.4509383929       -2.9290015360        4.7312187810
  C        13.5701058655       -2.2558751953        5.6305599880
  C        12.8704773392       -1.1658124975        5.1841666292
  C        13.0623652438       -0.7257316388        3.8641520674
  H        12.3908456927        0.1094156365        3.4581217831
  H        12.2084063810       -0.5946400726        5.7864599588
  H        13.5018995504       -2.5910518307        6.7349670890
  H        15.0988087700       -3.7545275930        5.1332181758
  H        15.2666637906       -3.0521435978        2.8076670607
  C        11.6181962051       -2.3415067502        1.4092365020
  C        10.6027090576       -2.9558285033        0.7037607186
  C        10.5481102542       -2.9154299705       -0.7080355230
  C        11.5174038350       -2.3113845890       -1.4454731725
  H        11.4624316497       -2.3389542363       -2.5582188884
  H         9.6804052978       -3.3428628908       -1.1523509442
  H         9.8535419934       -3.5515566856        1.2404342617
  H        11.6088710498       -2.3394880361        2.4850702632
  C        13.8719811232       -1.2844829121       -2.8995356454
  C        14.6562474790       -2.3550067096       -3.3745805273
  C        14.5961538423       -2.7761497079       -4.7118684651
  C        13.7428073581       -2.1583696466       -5.6411688118
  C        12.9167002689       -1.1541776992       -5.1269486034
  C        13.0360161944       -0.6978287216       -3.8485723552
  H        12.3158508500        0.0580463083       -3.4978999404
  H        12.2516029268       -0.6220981357       -5.8174711421
  H        13.7304125182       -2.3939428430       -6.7126481985
  H        15.2157606009       -3.6211444667       -5.1104165917
  H        15.2068060226       -2.9790959919       -2.6710504302
  C        11.0373105310        6.8254615986        0.8133187170
  C        10.1123432401        7.6759201350        1.4563763207
  C         9.0228923591        8.1297700797        0.7503357559
  C         7.9395612510        8.8179556247        1.4101376047
  C         6.8296566104        9.3160270058        0.7295030399
  C        10.1686651678        8.0499026114        2.9440296441
  C        10.7745229058        9.2616926973        3.2793405568
  C        10.9797162768        9.6860708086        4.6267083176
  C        10.3363866158        8.9837373772        5.6880863459
  C         9.5848564397        7.8379623787        5.3446181021
  C         9.4982123388        7.3587051776        3.9931591452
  H         8.0748855183        8.8897889670        2.4755968643
  H         6.0122467653        9.8989406987        1.1068879334
  H        11.2838198159        9.8144742008        2.5025557018
  H        11.5821408449       10.6126787274        4.7570371344
  H        10.3617172996        9.4031669334        6.7138079536
  H         9.0663741575        7.2452282403        6.0490405138
  H         9.0604029923        6.4251694633        3.6989629094
  C        11.1508900928        6.7973070854       -0.6905976437
  C        12.2443710377        6.1368276974       -1.4365044616
  C        13.3037060803        5.5437834596       -0.7102542508
  C        13.1508019814        5.4571017871        0.7429153233
  C        12.1044396921        6.0608432111        1.4806870001
  C         8.9489740906        8.0323638324       -0.7154609589
  C        10.0897304803        7.4518185210       -1.3969278064
  C        10.2249132558        7.9512126652       -2.8066795561
  C        10.9649671734        9.1612118713       -3.0000219297
  C        11.0041754212        9.7872610624       -4.2423032759
  C        10.2612672641        9.2379571857       -5.2936715294
  C         9.5677145794        8.0687974096       -5.0894802310
  C         9.5429277571        7.4094300300       -3.8773543222
  H         9.0362013724        6.4996707101       -3.6877921738
  H         9.0138038879        7.7691104523       -6.0205505995
  H        10.3343103706        9.7203909952       -6.2373171212
  H        11.6497882034       10.7041475693       -4.4513021853
  H        11.5693814856        9.5929503061       -2.1833948676
  C         7.7128323495        8.4962943771       -1.3809202534
  C         6.7765535125        9.1377193195       -0.6640253042
  H         5.8972456286        9.5094786151       -1.2344337565
  H         7.7566916713        8.2907011336       -2.5103361453
  C        12.0202121371        5.7007752489        2.9090026836
  C        11.0566355107        4.7520773520        3.3604227822
  C        10.9781884295        4.4616391470        4.7196775046
  C        11.8647586859        4.9894595144        5.6439688242
  C        12.9347850037        5.7895229406        5.2381864019
  C        12.9657922589        6.1288116089        3.8636580205
  H        13.7535430285        6.8187302332        3.5541054697
  H        13.5783969192        6.1355543210        6.0407330585
  H        11.7368341442        4.8394184600        6.7015601438
  H        10.2291014437        3.7346972762        5.0483824930
  H        10.1666036128        4.4756094807        2.7909724824
  C        14.2476066288        4.7723052724        1.3912651279
  C        15.2486954003        4.1562299410        0.7015757159
  C        15.3554966956        4.2212699880       -0.7342561440
  C        14.3956204120        4.9030084448       -1.4558583020
  H        14.2641128363        4.9698682357       -2.4829194457
  H        16.2308091495        3.7579274544       -1.1624834046
  H        16.0901828945        3.6959329402        1.2680946809
  H        14.2361167084        4.6838720151        2.4718237717
  C        12.1693706930        5.8865905344       -2.8673092283
  C        11.3048080561        4.7503402076       -3.1235747092
  C        11.2829715864        4.2548978283       -4.4265770953
  C        11.9399826260        4.8777670763       -5.4806150724
  C        12.8479423907        5.9500509758       -5.2313295907
  C        12.8629796572        6.5174305737       -3.8645271560
  H        13.4957550579        7.3833438533       -3.7197623100
  H        13.5227432204        6.3635628701       -6.0207639007
  H        11.8177525439        4.3809077199       -6.4331377314
  H        10.7169178749        3.2971259240       -4.5745256746
  H        10.8300912543        4.1405830882       -2.3387925663
