140

  C         4.6616794229        0.0757372923       15.9696516246
  C         5.7048841693        0.7396431250       16.6678794533
  C         6.7470643305        1.3131333364       15.8945915712
  C         7.8221735906        1.9953921529       16.5327868759
  C         8.8017227862        2.6711706694       15.8268600585
  C         5.6276659774        1.1029231135       18.1488878785
  C         4.8678741395        2.1994872082       18.5326813815
  C         4.9362414160        2.5935117320       19.8763814764
  C         5.7400234723        1.9764822250       20.8704618038
  C         6.6185091431        0.9854082551       20.3926628910
  C         6.5089716466        0.5013533758       19.0723007738
  H         7.7766618293        2.0292581828       17.6060372040
  H         9.5293164134        3.3437251849       16.3168700861
  H         4.3339293622        2.6739276591       17.6707534909
  H         4.2807882035        3.3852207562       20.1481849086
  H         5.7799886333        2.3144943209       21.9387982910
  H         7.3955702249        0.5181034497       20.9994022545
  H         7.1460386849       -0.2833856737       18.7657151665
  C         4.5657074937        0.0475573801       14.5202269131
  C         3.4430766620       -0.6484033166       13.8840614022
  C         2.3604881219       -1.0991240124       14.6568002050
  C         2.4782266914       -1.1170155797       16.0965738334
  C         3.6784840935       -0.6354875981       16.7413296412
  C         6.7422205821        1.2177182741       14.4943645759
  C         5.6894168095        0.5256257110       13.8554497278
  C         5.6835911533        0.8257044539       12.3482867402
  C         4.8326326805        1.8268229594       11.8347881209
  C         5.1093249759        2.2887046878       10.5514999446
  C         6.0882073603        1.7245155028        9.7561253750
  C         6.8798240650        0.6615128208       10.2105865667
  C         6.6709837546        0.2379639111       11.5345022013
  H         7.2630958760       -0.5411776293       11.9490145596
  H         7.6164822410        0.3436158513        9.4912014559
  H         6.2434179526        2.0401182941        8.7589826502
  H         4.6577833198        3.1304509727       10.0931336189
  H         4.0341855106        2.2226526740       12.4282452231
  C         7.7514356239        1.9343509034       13.7612798618
  C         8.7787425344        2.6508741892       14.3808295605
  H         9.3970787922        3.2932829652       13.7935905532
  H         7.7279669630        1.8822374964       12.6717867460
  C         3.8621310746       -1.1000636379       18.1720964647
  C         4.5650643776       -2.2282230211       18.4327936834
  C         4.6972546495       -2.7624209552       19.7231659770
  C         4.0195388177       -2.0878634691       20.7826800009
  C         3.1793487232       -1.0521441047       20.5223764736
  C         3.2091820846       -0.5122091617       19.2662948459
  H         2.4357151955        0.2283589301       19.1785675550
  H         2.5842988491       -0.5509969480       21.2872493026
  H         4.1949418317       -2.4095994727       21.8246157461
  H         5.4352875103       -3.5151563775       19.9970412275
  H         5.0580163766       -2.6659949632       17.5746256095
  C         1.4020801972       -1.5825546202       16.8487022230
  C         0.3504198082       -2.3347182578       16.3277080381
  C         0.1983969745       -2.3587269824       14.9399499933
  C         1.1390891130       -1.7472084171       14.1282894692
  H         1.0264711359       -1.6752979327       13.0297833208
  H        -0.7055127383       -2.7800539947       14.4679500847
  H        -0.3358823054       -2.8090838751       17.0433453656
  H         1.4160680959       -1.4901429258       17.9599917482
  C         3.4623591973       -1.0161174090       12.3894368746
  C         4.3721161767       -2.0212553182       11.8761662624
  C         4.2338414212       -2.4334258717       10.5600091500
  C         3.3513686126       -1.8659063039        9.6553229362
  C         2.4694823129       -0.8479351414       10.1698255345
  C         2.4449076459       -0.5465693799       11.5167118402
  H         1.7373135250        0.1796647973       11.7932447795
  H         1.7759977079       -0.3752303104        9.5273908477
  H         3.2848759751       -2.1843199761        8.6409004871
  H         4.9948055687       -3.1044014724       10.1297827892
  H         5.1347534893       -2.3967861815       12.5631182740
  C         1.1249419630        7.0086459665       15.6771174796
  C        -0.0146877367        7.5811102964       16.3580908056
  C        -1.0423296493        8.2744162763       15.6598356988
  C        -2.2175398564        8.8230078102       16.2987581132
  C        -3.0076465882        9.6222707768       15.5368212790
  C        -0.0292145742        7.9640977075       17.7929234603
  C         0.5931172890        9.1814582052       18.1029010291
  C         0.4664420667        9.7460185535       19.3375274319
  C        -0.3309972928        9.0557582191       20.2713465678
  C        -0.9194071348        7.8314263504       20.0123206332
  C        -0.8010839586        7.2462577876       18.7203319490
  H        -2.3791145917        8.8021879680       17.3799533279
  H        -3.8734295959       10.1827981215       15.9126008327
  H         1.2974996351        9.5745326587       17.3480902331
  H         1.0864399689       10.6134368218       19.6328064876
  H        -0.3218682199        9.4237974330       21.3224859870
  H        -1.5915475194        7.2630145784       20.6594681017
  H        -1.3061419587        6.2986318365       18.4652384052
  C         1.2191162924        7.0758798851       14.2151530383
  C         2.3097362218        6.3306852448       13.5450604856
  C         3.4304076238        5.8052842306       14.2668097755
  C         3.3320720143        5.8524584435       15.6955194640
  C         2.1578790535        6.3317305631       16.3813432584
  C        -0.9850765905        8.2394950904       14.2333601791
  C         0.1877495270        7.7500626961       13.5418394424
  C         0.1908395788        8.0768294760       12.0684126529
  C         0.7890700124        9.3049170081       11.5810847566
  C         0.7600822242        9.6218944391       10.2181830848
  C        -0.1380331366        8.9296140758        9.3475023490
  C        -0.9128693920        7.8625965355        9.9086647864
  C        -0.5686234712        7.3596304075       11.1833770966
  H        -1.1757547869        6.5199092137       11.5073073461
  H        -1.6261498782        7.3385708213        9.2759917420
  H        -0.3459417194        9.2137703281        8.3543142443
  H         1.3780405133       10.4747140776        9.9213152783
  H         1.4135124812        9.9408016187       12.2496895503
  C        -2.1099919176        8.8808603828       13.4590001827
  C        -3.0104397584        9.6719961019       14.1269503976
  H        -3.9216799499       10.1742126299       13.6927602915
  H        -2.2571407851        8.7100439270       12.3669161358
  C         1.9918383578        6.0062042993       17.8476957400
  C         1.1881187935        4.9546247859       18.3280553676
  C         1.0986715697        4.7648393072       19.7116293629
  C         1.7142876786        5.5898776921       20.6150920040
  C         2.5831368637        6.5939051895       20.1420407811
  C         2.7022916194        6.7727604070       18.7748599213
  H         3.3347119544        7.5693361496       18.4033647606
  H         3.1263540612        7.2855373391       20.7904739929
  H         1.5479571806        5.3337463501       21.6802079771
  H         0.5001296525        3.9083735472       19.9519013730
  H         0.7307494774        4.2164492088       17.6220525403
  C         4.3123949494        5.1406865469       16.4749370110
  C         5.3390279628        4.4985126331       15.8428293475
  C         5.4995064318        4.4799664505       14.4722851785
  C         4.5525216305        5.0975843475       13.6886333093
  H         4.8042601234        5.2160112309       12.6160672878
  H         6.3910003813        4.1086611082       14.0106925910
  H         6.0418926812        3.9415053942       16.5018621032
  H         4.1533392921        5.1368974210       17.5539794497
  C         2.2145894573        5.9859556643       12.0961280481
  C         1.4112847904        4.9236645297       11.6510431383
  C         1.2922410516        4.6574561691       10.2708154758
  C         2.1866603476        5.2945536959        9.3687795115
  C         2.9923406864        6.2874321208        9.8200200547
  C         2.9991931914        6.6753792329       11.1590127756
  H         3.5648028555        7.5857719580       11.4021632674
  H         3.6407278657        6.8015998885        9.1403447266
  H         2.0892664190        5.0172303815        8.3267229491
  H         0.6337127897        3.9121817464        9.8690126500
  H         0.8358093154        4.3109882615       12.3039264629
