140

  C         4.5299507895       -0.1981744574       15.7059718857
  C         5.5528476282        0.5547185400       16.3965888275
  C         6.6018522086        1.1338768236       15.6872491127
  C         7.6924646973        1.7559599652       16.4052595767
  C         8.6641002989        2.3796543766       15.6491957051
  C         5.4658752782        0.9601213073       17.8219813715
  C         4.8214179599        2.1813483487       18.2301763178
  C         4.8579503847        2.5983345212       19.6249555900
  C         5.5419770514        1.8270977947       20.5500642667
  C         6.1274226098        0.5800751029       20.1396957720
  C         6.0764995495        0.1926513758       18.7891844050
  H         7.7466049687        1.6173469913       17.4636191152
  H         9.6101569975        2.6573332147       16.0756189644
  H         4.4498136405        2.8870759652       17.5375402082
  H         4.3884040500        3.5499434643       19.8817113502
  H         5.7226148351        2.0774331284       21.5753421952
  H         6.6623271429        0.0031406662       20.9251169380
  H         6.5199107533       -0.7779609993       18.4758707134
  C         4.4741024817       -0.1525395443       14.2138400621
  C         3.4680447297       -0.9119256055       13.5147569983
  C         2.4169115234       -1.5214065505       14.3094415781
  C         2.4039478426       -1.4814275405       15.8067638328
  C         3.5630109944       -0.9239672426       16.4258946129
  C         6.5934376272        1.2021117823       14.2805461025
  C         5.4860135971        0.6190766901       13.5644686699
  C         5.2632914614        1.0502992367       12.1214398694
  C         4.1769799792        1.9267955621       11.8558600967
  C         3.9150831769        2.4349125652       10.5630297477
  C         4.8056674581        2.0641010087        9.4894210384
  C         5.8900652864        1.1681203845        9.7308388729
  C         6.1728932156        0.7256519359       11.0681796377
  H         6.9828037605        0.0092261526       11.3516845030
  H         6.5358393747        0.8476161355        8.9091059285
  H         4.7292129068        2.4278588219        8.4477283789
  H         3.1175762785        3.1986936240       10.4787126926
  H         3.5390554968        2.1430852581       12.7278644991
  C         7.5264758604        1.9762348534       13.5079461746
  C         8.4926289381        2.6109197254       14.2323567975
  H         9.3201872903        3.1153437968       13.7278936576
  H         7.4537836436        2.1139525847       12.4515096593
  C         3.5632296537       -1.1445582417       17.8901933924
  C         4.1470251323       -2.2557378978       18.4959826421
  C         3.9923668451       -2.5360671835       19.9063039805
  C         3.0966773843       -1.7596005787       20.6302265443
  C         2.4722047225       -0.6219970854       20.0567887931
  C         2.7595680317       -0.3563247947       18.7049901413
  H         2.2722058455        0.4857333255       18.2202372165
  H         1.8801776377        0.1609448152       20.6372301676
  H         3.1549103044       -2.0057893921       21.6757874256
  H         4.5224199775       -3.3875830384       20.3467275553
  H         4.8588821472       -2.8424590322       17.8535416805
  C         1.4233317829       -2.2484272670       16.4634392352
  C         0.3309511976       -2.7226276441       15.7721689954
  C         0.3821715985       -2.7374577242       14.3446156800
  C         1.3917760128       -2.2191267308       13.6448634195
  H         1.3815712271       -2.3077840508       12.5806706631
  H        -0.4085231649       -3.2833571534       13.8902500059
  H        -0.4964059882       -3.2928983972       16.2739290759
  H         1.3510051272       -2.3089904196       17.5392984606
  C         3.5340830286       -1.2541183087       12.0493946892
  C         4.4400871645       -2.2856602708       11.6729512665
  C         4.4807213378       -2.6041089670       10.2862437145
  C         3.5413112612       -2.1153157746        9.3573883785
  C         2.6406368318       -1.1369400970        9.8165007369
  C         2.6213757849       -0.7178411649       11.1208861467
  H         1.9372282489        0.0821977014       11.4153475057
  H         1.8935366992       -0.7348818543        9.1421495798
  H         3.6177426267       -2.3295384490        8.2762700135
  H         5.3436562346       -3.2232087449        9.8971443018
  H         5.1216010137       -2.7357127627       12.3192475913
  C         0.8249678829        6.9081467651       15.5027916441
  C        -0.2160718492        7.5298370402       16.2935529106
  C        -1.2990522840        8.1169791514       15.5956512265
  C        -2.2695031130        8.9355116471       16.3314946210
  C        -3.3336603907        9.4493024572       15.7068016585
  C        -0.0726842694        7.9489730119       17.7035442099
  C         0.8951217947        8.8986438381       18.0688880851
  C         1.0898007561        9.1779751524       19.4030180353
  C         0.3033255235        8.6587631537       20.3721365315
  C        -0.6187662806        7.6649361291       20.0280480358
  C        -0.8007303863        7.3251492587       18.6892218241
  H        -2.1663824416        8.9485816174       17.4168027974
  H        -4.0359478595       10.1934153806       16.1152581927
  H         1.4076103725        9.4492311519       17.3052821153
  H         1.8395963030        9.9381923860       19.7131779057
  H         0.4086355019        9.0711564739       21.3741626131
  H        -1.2481699426        7.2185698440       20.7565931176
  H        -1.5136859491        6.5238766791       18.4931841543
  C         0.7195243671        6.9258636627       14.0773946872
  C         1.7849960970        6.3183114509       13.2993464116
  C         2.9473612102        5.7842189652       13.8865371673
  C         3.0229899171        5.7184522480       15.3109253971
  C         1.9518174852        6.1633874373       16.1018106680
  C        -1.3614650258        8.2061051134       14.1297176903
  C        -0.2842024165        7.6416187129       13.4072242868
  C         0.0015432891        8.2226225385       12.0422678325
  C         1.0627263985        9.1764693851       12.0883494295
  C         1.1591118076       10.0705511614       11.0646635135
  C         0.2134228546       10.1617051579       10.0295370324
  C        -0.8343244257        9.1781382579       10.0068196096
  C        -0.8268863256        8.1286910591       10.9895316841
  H        -1.5612526920        7.3761866064       10.8878544732
  H        -1.5821409233        8.9539974435        9.2383495715
  H         0.3551164329       10.8356380743        9.1551767202
  H         1.8958522164       10.8755472946       11.0771761766
  H         1.7820018575        9.1174939814       12.8426520025
  C        -2.3805064641        9.0190256358       13.5317780099
  C        -3.4053518539        9.5505081604       14.3008749408
  H        -4.1582984532       10.1647108086       13.7913470173
  H        -2.3298769105        9.2420650333       12.4396403099
  C         2.0228141354        5.7926981799       17.5829974983
  C         1.1479138743        4.8303074636       18.1184291066
  C         1.2490215948        4.4594881694       19.4902759412
  C         2.1009455644        5.1707263379       20.3355476813
  C         3.0543759252        6.0465246973       19.7875823300
  C         2.8863282290        6.4190954074       18.4279392376
  H         3.4770736413        7.2066667242       17.9609502606
  H         3.6464276723        6.6349497857       20.4871895796
  H         2.1541325924        4.9498373556       21.4280682768
  H         0.6073337206        3.6686948400       19.9128881268
  H         0.4497939114        4.2439121837       17.4893911670
  C         4.2159785057        5.1566567925       15.9367004649
  C         5.2953983577        4.8121553609       15.1629107286
  C         5.2324279950        4.9155240933       13.7552018994
  C         4.0911152902        5.3386350013       13.1255000201
  H         4.1184868966        5.2112356031       12.0677545327
  H         6.0485724788        4.4762723578       13.2310117563
  H         6.2011873791        4.3556522737       15.6185954793
  H         4.2265277525        4.9796872209       17.0390051461
  C         1.5475733153        6.0622547494       11.8479494067
  C         0.6067915200        5.1020645511       11.4572753305
  C         0.5564859976        4.6506013316       10.1453277788
  C         1.4373808867        5.1077209183        9.1858534888
  C         2.3984645204        6.0360036356        9.5301111666
  C         2.4631621246        6.5438446761       10.8271330844
  H         3.2041357669        7.3318566090       11.0432244291
  H         3.2654346335        6.2949665851        8.8756686984
  H         1.4469930061        4.5690923907        8.2771650796
  H        -0.1197197075        3.8559329589        9.8227729479
  H         0.0274627151        4.5925857235       12.2102186137
