140

  C        14.3610101029       -0.1152769347        1.1488372018
  C        15.4027517250        0.6806624019        1.7428474691
  C        16.3033205884        1.3945657879        0.9244566807
  C        17.3194370147        2.1115030655        1.6214441455
  C        18.3118577495        2.6801717106        0.8855613642
  C        15.4681246176        0.9929386816        3.2263959511
  C        15.0271924472        2.2378791893        3.7315987051
  C        15.3414053911        2.6406411468        5.0032555043
  C        16.1110603343        1.9419428587        5.8769837303
  C        16.6028878104        0.6896846785        5.3977960798
  C        16.2145324666        0.2267203694        4.0959881689
  H        17.2679906334        1.9959509157        2.7228550794
  H        19.1554221589        3.0782233931        1.4247538733
  H        14.3595561553        2.7707465085        3.0351295406
  H        14.9374283569        3.5981161667        5.3922185250
  H        16.4484473038        2.4033105688        6.8034277404
  H        17.2673741794        0.0718190342        6.0483839799
  H        16.7422737523       -0.6393119507        3.6678978998
  C        14.2435232332        0.0026134329       -0.3668968559
  C        13.1708566119       -0.7212879081       -1.0384880252
  C        12.2003015539       -1.3834542405       -0.3050578176
  C        12.2776534311       -1.4408770187        1.1156608446
  C        13.3119013647       -0.8471464603        1.8650194629
  C        16.1736300164        1.5112799392       -0.5051267514
  C        15.0948239983        0.8131438629       -1.1310171736
  C        14.9784259697        1.1634726001       -2.5274929451
  C        14.0831070669        2.2213706149       -2.9469731637
  C        14.1108290468        2.6358043626       -4.2755987014
  C        15.0509644784        2.1152917296       -5.1588257392
  C        15.9484265856        1.1703107434       -4.7421482955
  C        15.9432592234        0.6921564037       -3.4263460147
  H        16.6240049257       -0.0308290789       -2.9299905510
  H        16.6340443501        0.7296209898       -5.4559473144
  H        15.1590053429        2.4775224694       -6.1747543566
  H        13.5385124364        3.4690597646       -4.5453750669
  H        13.3935277896        2.7259337159       -2.2927975445
  C        17.1908753416        2.1716206310       -1.2373862733
  C        18.2512213832        2.6701169012       -0.5160736696
  H        19.0932712693        3.1542189029       -0.9993723680
  H        17.1450273623        2.2889880163       -2.2955895586
  C        13.3620427944       -1.2556128798        3.2885425681
  C        14.0537591615       -2.3929913396        3.6830385443
  C        13.9822341676       -2.7897371003        5.0612236031
  C        13.4467476860       -1.9366559593        5.9807855177
  C        12.7347186377       -0.7734149112        5.5312618231
  C        12.6229288186       -0.4510864765        4.2115733157
  H        12.0979249266        0.4058751947        3.8453852045
  H        12.2450249362       -0.2027714815        6.2839868510
  H        13.5208249838       -2.1663895771        7.0061854694
  H        14.4205300685       -3.8089089334        5.2895513860
  H        14.5865609444       -3.0658870176        3.0882184636
  C        11.1052643799       -1.9173995157        1.8069204209
  C        10.0268121261       -2.5013119977        1.1921532287
  C         9.9946803608       -2.5381223096       -0.2401510257
  C        11.1406417647       -2.1788977228       -0.9456964250
  H        11.2049034072       -2.4578477768       -1.9791909825
  H         9.3173480617       -3.1868901556       -0.7945676398
  H         9.1405870591       -2.8259327335        1.8123053179
  H        11.1408370992       -1.9112269130        2.8809027973
  C        13.2216465237       -1.0784042269       -2.5230251081
  C        14.0809650559       -2.1135263236       -2.9425601016
  C        14.1712887878       -2.5812569170       -4.2612510856
  C        13.2289662977       -2.1289114736       -5.1645491576
  C        12.2851938481       -1.1584924348       -4.8256035798
  C        12.3234237752       -0.6012109921       -3.5164942748
  H        11.5743053998        0.1625704346       -3.2736689217
  H        11.5267234413       -0.9029697165       -5.5549727412
  H        13.3166543298       -2.4055984161       -6.2317786025
  H        14.9571410234       -3.3821201993       -4.4712452458
  H        14.7516074695       -2.4649265358       -2.2399059773
  C        10.6931218663        7.1596386788        1.3088776262
  C         9.6243149407        7.8374908739        2.0414345092
  C         8.5967538403        8.5659904005        1.3062721850
  C         7.7265957726        9.4996243885        1.8963737778
  C         6.7270182036       10.0206049535        1.1634545694
  C         9.7726346792        8.3608487898        3.4014665104
  C        10.5885137766        9.4522927197        3.5005715805
  C        10.7943720453       10.1146281959        4.7180203387
  C        10.0722586867        9.6501020608        5.8569281046
  C         9.2311124376        8.5297799536        5.7289937295
  C         9.1085339193        7.8472717324        4.5108364137
  H         7.7854929254        9.6300732946        2.9982873266
  H         6.0810363425       10.7190988440        1.6748538529
  H        11.1790052746        9.7699023254        2.6509550789
  H        11.5732680319       10.7962396413        4.8071177461
  H        10.2083003240       10.1667894814        6.8142506338
  H         8.7124040475        8.2763072744        6.7103875958
  H         8.4050548491        7.1159745764        4.5039578735
  C        10.6414719887        7.1496110824       -0.2689899499
  C        11.6496358045        6.3901703153       -0.9269710691
  C        12.8126543962        5.9885126350       -0.1627102693
  C        12.8337295644        6.0407196750        1.2944038267
  C        11.7293463545        6.5220666622        1.9688862774
  C         8.5198667843        8.4708429578       -0.1762722209
  C         9.5492430929        7.8296101776       -0.9070622790
  C         9.4561319039        8.1415549198       -2.3760167800
  C        10.2610923256        9.2065382584       -2.8203371891
  C        10.2823661118        9.4197080454       -4.2201059322
  C         9.4666586935        8.7297827639       -5.1381187055
  C         8.5903410812        7.7772039989       -4.6157620696
  C         8.6671389285        7.4328966842       -3.2763490463
  H         7.9859146200        6.6593352216       -2.9234443897
  H         7.9539787322        7.1439639594       -5.2794260287
  H         9.5511085431        8.9991128055       -6.1807948413
  H        10.9190771122       10.2303598650       -4.5861760722
  H        10.8315942095        9.8182090059       -2.1536867678
  C         7.3475813432        8.9755993922       -0.8799951117
  C         6.4228403994        9.7314740474       -0.2280237534
  H         5.6671739220       10.2559121652       -0.8041503270
  H         7.3327650229        8.7575648183       -1.8945673125
  C        11.6915797522        6.1985411801        3.4491956405
  C        10.9227000009        5.0822894178        3.9050203352
  C        11.1643379754        4.6071612185        5.2381148141
  C        11.8186892674        5.3914036243        6.1534112097
  C        12.5058534523        6.5516050626        5.7158385976
  C        12.4633743686        6.9338814456        4.3747319880
  H        13.0441662782        7.7632469838        4.0070622849
  H        13.0485966166        7.1379303307        6.4351779122
  H        11.7257684494        4.9956460568        7.1949355104
  H        10.5449885708        3.8156265595        5.5990037197
  H        10.3005620539        4.5155114643        3.2521558743
  C        14.0188422321        5.5276991835        1.9621754071
  C        15.0835199257        4.9663625831        1.2858506143
  C        14.9854058637        4.8406449115       -0.1107179154
  C        13.9047720221        5.2805881686       -0.8124858660
  H        13.8646325453        5.0819328502       -1.9296877852
  H        15.7497066368        4.2588699594       -0.6356917150
  H        15.9909414745        4.4931075003        1.6515463119
  H        14.0677291107        5.4682645904        3.0354290474
  C        11.4927032262        5.9993668569       -2.3450409161
  C        10.8923615942        4.7473771766       -2.5256701925
  C        10.7464277623        4.2446455245       -3.8099861482
  C        11.3151847289        4.9488747032       -4.8818560546
  C        11.9234432029        6.1633675143       -4.6771320067
  C        12.0669196822        6.6864077244       -3.3488072863
  H        12.4187546059        7.7193846019       -3.1792186448
  H        12.4416782202        6.6275191510       -5.5416573616
  H        11.3076407098        4.6334932829       -5.8651110891
  H        10.2718335809        3.3208265645       -3.9755392211
  H        10.3186069280        4.2560831121       -1.7477430054
