140

  C        12.9592556659        0.5660866545        1.3049532036
  C        13.9734401476        1.3009767253        2.0376966782
  C        15.1018630812        1.8356849026        1.3945283271
  C        16.1927866916        2.4758442580        2.1367283022
  C        17.2885895348        2.8680063684        1.4265889353
  C        13.8643483303        1.6160912639        3.4794546974
  C        13.0374032424        2.6910174278        3.8566392835
  C        13.1189346106        3.2506808344        5.1284891971
  C        14.0849528917        2.7323552521        6.0213105435
  C        14.8890261912        1.6520205498        5.6832690441
  C        14.7350120599        1.0668038494        4.4171919576
  H        16.2632015777        2.6295153101        3.1757369782
  H        18.1871005385        3.2641800980        1.8802880430
  H        12.3522523628        3.0435609355        3.0970329686
  H        12.5547448514        4.1756050686        5.3543825322
  H        14.2693594347        3.2027375356        6.9711822111
  H        15.6071353513        1.3848528276        6.4149907457
  H        15.3090881338        0.1442115081        4.2110655088
  C        12.9565802295        0.5768827052       -0.1350382268
  C        11.9402477622       -0.1607852189       -0.7983124602
  C        10.9462863742       -0.8267079422       -0.0630335687
  C        10.9469724933       -0.8473920019        1.3815455493
  C        12.0065147246       -0.1796594929        2.0538668596
  C        15.1306467479        1.8357560735       -0.0087829217
  C        14.0296376984        1.3201526302       -0.8109877029
  C        14.0539545433        1.5124317301       -2.3283841371
  C        13.1993986630        2.5244742367       -2.9005418380
  C        13.1643465742        2.8039435647       -4.2414392566
  C        14.0424041550        2.0911235614       -5.0394920155
  C        14.8518100960        1.0941416437       -4.5530900287
  C        14.9029824541        0.8296820784       -3.1764568852
  H        15.5949158624        0.0594856579       -2.8047675005
  H        15.5347618865        0.5299523367       -5.2212588046
  H        14.0131555406        2.3528085388       -6.1157162369
  H        12.5633937865        3.6802062740       -4.4822083125
  H        12.5799017088        3.0627393631       -2.1848666992
  C        16.2309557007        2.3654044473       -0.7672264623
  C        17.3020982451        2.8969152383       -0.0453066854
  H        18.2209896016        3.3758652236       -0.5071163541
  H        16.2431117180        2.4370295060       -1.8414000627
  C        12.1782550621       -0.5082209438        3.5347402533
  C        13.0961595697       -1.4996188786        3.9400507378
  C        13.0620383924       -1.9828909928        5.3100558863
  C        12.1774784363       -1.5089781570        6.2939363839
  C        11.2963795487       -0.4878142351        5.8938728885
  C        11.3286350344        0.0561208771        4.5667937382
  H        10.6301268054        0.9003236116        4.4199605080
  H        10.6318045395       -0.0702746802        6.5933160958
  H        12.1039107164       -1.8891984988        7.3530187282
  H        13.9012129130       -2.6350036049        5.6566622998
  H        13.7799967066       -1.8744725045        3.2676570159
  C         9.8010836367       -1.3626842218        2.0383153202
  C         8.8007152942       -2.0385121521        1.4256653451
  C         8.8584764303       -2.2086639547        0.0000968567
  C         9.8346030715       -1.5581908646       -0.6969591203
  H         9.7360955396       -1.5175308222       -1.7663393571
  H         8.1735283680       -2.7638288911       -0.6236877848
  H         7.9659451174       -2.5182895418        1.9761476190
  H         9.7385779951       -1.2503648811        3.1540865354
  C        11.9691569564       -0.5687074126       -2.1924672368
  C        12.7573579593       -1.6679245048       -2.5146492285
  C        12.5737999266       -2.3388761909       -3.8020170754
  C        11.8494818936       -1.7244068539       -4.8366416983
  C        11.1593444696       -0.5333515578       -4.4876785084
  C        11.0977912230       -0.0595442807       -3.1670563378
  H        10.3611614554        0.7752342858       -3.0012607138
  H        10.4844397061       -0.0098263712       -5.1485755617
  H        11.8171389154       -2.1793816990       -5.8260931110
  H        13.0237601781       -3.3145491959       -3.9511853855
  H        13.3457449241       -2.1434405093       -1.7564701521
  C         9.7398884869        7.9015730853        1.0362588215
  C         8.6880919725        8.5724894260        1.8451852365
  C         7.5093909084        9.0307603203        1.2147586188
  C         6.3984110875        9.8183012446        1.8302159279
  C         5.4116808837       10.4551222602        1.1960850384
  C         8.8237154893        8.8827228432        3.3562334978
  C         9.6570990216        9.9891039668        3.7376183990
  C         9.6917643382       10.3179437765        5.0620397441
  C         8.8776328198        9.7521189881        6.0114569337
  C         8.0373319910        8.7155730171        5.6607956548
  C         8.0268195944        8.3059817636        4.3243679132
  H         6.4707825779       10.1046518463        2.9223083907
  H         4.7506382490       11.1566436280        1.6375148557
  H        10.3041690464       10.4302983066        2.9898144645
  H        10.4208883670       11.0255870859        5.4007064973
  H         8.9132815280       10.1278000106        7.1007474389
  H         7.3026642576        8.1870310466        6.3012903244
  H         7.4829197834        7.4031089219        3.9880138592
  C         9.5797063354        7.8590658154       -0.4780484913
  C        10.5604136616        7.1578246945       -1.2510899134
  C        11.6040182111        6.3903918553       -0.5744281888
  C        11.7785359744        6.4828644621        0.9107264449
  C        10.7725801606        7.1412619167        1.6477580455
  C         7.4385015488        9.0140028162       -0.2232147817
  C         8.4877086212        8.5156343970       -1.0239530222
  C         8.4095716779        8.6863017966       -2.5036601815
  C         9.2703828077        9.5897567241       -3.1245342308
  C         9.0319840289        9.8572414233       -4.5008638905
  C         8.0935938756        9.1843558809       -5.2851715592
  C         7.3269090319        8.1787248519       -4.6837152122
  C         7.4174842636        8.0324986340       -3.3425527970
  H         6.6549466107        7.4248301213       -2.8421747119
  H         6.4744028230        7.7539487196       -5.2088411926
  H         8.0709956650        9.5946134172       -6.2958697951
  H         9.4974504095       10.7851760702       -4.8793332361
  H        10.0114697820       10.1636540164       -2.5707857949
  C         6.3084457528        9.6383846986       -0.8829130377
  C         5.3058288292       10.3298272398       -0.2206552163
  H         4.5842875371       10.9084439466       -0.7252940199
  H         6.2516856430        9.5927694531       -1.9732304656
  C        10.6840432323        6.7190104701        3.1236758611
  C        10.0957793530        5.5567191291        3.5330496222
  C        10.1058946309        5.0937725718        4.8894166369
  C        10.8059077073        5.8916215918        5.7887990333
  C        11.5233170012        7.0188801735        5.3680714325
  C        11.4741903244        7.4335218560        4.0678611340
  H        12.0219112411        8.3423982396        3.7885034108
  H        12.1283554407        7.5417841502        6.1080670946
  H        10.7977119111        5.8159645623        6.8576804610
  H         9.7504588648        4.1543080465        5.2845362974
  H         9.5394950750        5.1212363993        2.7034453087
  C        12.9581676430        5.8914117296        1.4776262823
  C        13.9117380435        5.2592213250        0.7395914120
  C        13.7278074414        5.0846026672       -0.6426156725
  C        12.7002854957        5.7162588651       -1.2757150189
  H        12.5447409343        5.4923912957       -2.3180521182
  H        14.4985221969        4.6951573294       -1.2754098797
  H        14.7449405086        4.8130598741        1.2907969517
  H        13.0901385782        5.9183582948        2.5349441045
  C        10.3204634166        6.6668593660       -2.6639706294
  C         9.4199090498        5.6704773076       -2.7593637919
  C         9.3870373580        4.9371734283       -3.9145234379
  C        10.1978621038        5.2369803324       -5.0340780778
  C        11.1643964839        6.2656727684       -4.9058592812
  C        11.2144023312        6.9678148591       -3.7320519805
  H        12.0309367816        7.6641216532       -3.5505246044
  H        11.8559175118        6.3676077778       -5.8113705993
  H        10.0565706200        4.7530529800       -5.9726500404
  H         8.7323430180        4.0590580570       -4.0430519994
  H         8.7894504239        5.4027893672       -1.9091488485
