140

  C         4.9901896538       -0.3585504332       15.8913933361
  C         5.9957397798        0.4981012685       16.4667658203
  C         7.0070571258        1.1034188125       15.7091876048
  C         8.0617700393        1.8293410190       16.3304103615
  C         9.0712304236        2.3394337791       15.5271174571
  C         5.8957280155        0.8855901809       17.9062877218
  C         4.9648525574        1.7921529462       18.2855446507
  C         4.9014431535        2.2162078096       19.6144413244
  C         5.7383187092        1.6636287859       20.5845655230
  C         6.7091821894        0.6739006258       20.1961789660
  C         6.8218142000        0.3548940569       18.8571046355
  H         7.9983448107        2.0319250527       17.4001646305
  H         9.9012770639        2.8293409466       15.9665894809
  H         4.2666597648        2.2085563431       17.5203721592
  H         4.1055609113        2.8886653780       19.9070801079
  H         5.7451029773        1.9364729263       21.6463000138
  H         7.4003644545        0.2824711197       20.9083232457
  H         7.5701978461       -0.2998762968       18.2953831345
  C         4.9270768200       -0.4155509774       14.3629612610
  C         3.8958481390       -1.1124429770       13.7335596327
  C         2.7957324698       -1.6779564316       14.4845384630
  C         2.8488903032       -1.5740564139       15.9574775826
  C         3.9122974807       -0.9145903629       16.6289148978
  C         7.0401049576        1.0060657502       14.2714186227
  C         6.0117054219        0.2526117711       13.6572775702
  C         5.8978724341        0.5705762487       12.2440147111
  C         5.2144685602        1.8043176118       11.8739009240
  C         5.2479250761        2.2522366394       10.5573218142
  C         6.0093615798        1.5644894090        9.6258176205
  C         6.8091433362        0.5077016979        9.9894967875
  C         6.6997887612       -0.0680108340       11.3036450307
  H         7.3903990704       -0.8533143204       11.6383006534
  H         7.3783842491        0.0651601399        9.2488980819
  H         6.0493259213        1.9435531610        8.5939195749
  H         4.5400058618        3.0706059359       10.2354656146
  H         4.6989395921        2.4316915779       12.5606914855
  C         8.1563493915        1.5350102536       13.4781291819
  C         9.1233966991        2.1747401037       14.1512793360
  H         9.9960730401        2.5608141030       13.6336233974
  H         8.0161672972        1.3768570532       12.4431331786
  C         4.0415997703       -1.3064132469       18.0290653727
  C         4.8986973194       -2.3345932487       18.3930190671
  C         4.8274479617       -2.8787672170       19.6892594572
  C         3.8498501908       -2.4592485855       20.6342289403
  C         3.0984108046       -1.3135514242       20.2826536543
  C         3.2068363422       -0.7642660252       18.9983307962
  H         2.6875401856        0.1038801236       18.6436471990
  H         2.4422438137       -0.8013581899       20.9405546612
  H         3.6563716238       -2.8282310986       21.6325170945
  H         5.5254134269       -3.6896624845       19.9663223944
  H         5.5673400052       -2.8532173431       17.7023165833
  C         1.7274061078       -2.2215160204       16.7064006918
  C         0.6190022706       -2.6839176015       16.0372838804
  C         0.6049174143       -2.8014743543       14.5933974220
  C         1.6645780369       -2.3058145969       13.8937935986
  H         1.6100432859       -2.4953361414       12.8439201573
  H        -0.3195593526       -2.9592229204       14.0441892775
  H        -0.2035425240       -3.0399583619       16.6178940466
  H         1.7235687000       -2.2193766686       17.8024137247
  C         4.0361548421       -1.4708007812       12.2367685808
  C         4.8433566181       -2.6432678075       11.9137201574
  C         5.0198845817       -3.0225328635       10.5820343561
  C         4.3046028849       -2.3748553430        9.5358881456
  C         3.4266356136       -1.3397313406        9.8349993399
  C         3.3097509164       -0.9277638987       11.2076932994
  H         2.6957296284       -0.0869580272       11.3875381338
  H         2.7672494266       -0.9541377370        9.0625902626
  H         4.2531671513       -2.6963738772        8.5396907187
  H         5.5552936469       -3.9698851653       10.4359030139
  H         5.3443874594       -3.1533220299       12.7383249113
  C         1.3668882671        6.7831049475       16.3384792227
  C         0.3935847034        7.5087010140       17.0197397643
  C        -0.7137690199        8.0285127475       16.2926515359
  C        -1.6699944473        8.8031575084       16.9702513830
  C        -2.6459719236        9.4876755164       16.3041379176
  C         0.4941366292        7.9403965386       18.3806398200
  C         1.3608426169        8.9960137227       18.7362728068
  C         1.1701130038        9.6237800440       19.9344178357
  C         0.0889148348        9.2773725958       20.8515924486
  C        -0.7244417322        8.1750059169       20.5143457990
  C        -0.4063258931        7.4838839029       19.3498309329
  H        -1.7364078644        8.7934164196       18.0211702127
  H        -3.4669295539       10.0189400495       16.8263222970
  H         2.1072133320        9.3115116665       18.0170588897
  H         1.8938118007       10.2985903235       20.3273716171
  H        -0.1685645589        9.9029986044       21.6941404302
  H        -1.5932697502        7.7789289631       21.0894610728
  H        -0.8714491591        6.5564596246       19.1133755797
  C         1.4029957635        6.8370443754       14.8468699617
  C         2.3314378506        6.0966601087       14.1005793084
  C         3.4380016550        5.5604163474       14.7320684162
  C         3.5706754731        5.7103690303       16.1196357827
  C         2.5243064326        6.1732830584       16.9311240717
  C        -0.6288870366        8.0638522184       14.8729089247
  C         0.3868539207        7.5111876782       14.1293539293
  C         0.5011018081        7.8657629237       12.6876700614
  C         1.1623551631        9.0090534202       12.3076312358
  C         0.9860048295        9.5843130816       10.9966126499
  C         0.1988194263        8.8788269646       10.0733318981
  C        -0.4656396613        7.7016007173       10.4259509139
  C        -0.3339292227        7.2575085681       11.7732664972
  H        -0.8156304132        6.3595779266       12.1336845007
  H        -1.2043073916        7.1652377426        9.8055881304
  H         0.0358836865        9.3002857248        9.1069362366
  H         1.4951426543       10.4926529514       10.6565990039
  H         1.6722303984        9.5413358906       13.0674144174
  C        -1.5541817399        8.9458368440       14.2443230217
  C        -2.5966368485        9.5288888367       14.8417897547
  H        -3.3228403406       10.1097927728       14.2917519401
  H        -1.5617833117        8.8841821645       13.1536613997
  C         2.6175246996        5.8667648685       18.4383995688
  C         1.7948378921        4.8198774675       18.9173070001
  C         1.6658162815        4.5664184488       20.2998843957
  C         2.4496495344        5.3047016768       21.2135727009
  C         3.2674171394        6.3407091938       20.7233318206
  C         3.3722423739        6.6258971567       19.3982780706
  H         4.0503185416        7.3730460102       19.0945243181
  H         3.8440953838        6.7946562402       21.5115506510
  H         2.4078025498        5.2164293577       22.3020380019
  H         0.9600702275        3.8602549552       20.6583475282
  H         1.2329195965        4.2451881906       18.2168903780
  C         4.7855946133        5.2852893890       16.6899153238
  C         5.7618152578        4.6814146345       15.9977928477
  C         5.6468173356        4.4796746344       14.6279642731
  C         4.4389915178        4.7971589171       14.0138887136
  H         4.2720193523        4.4852363139       13.0315520862
  H         6.3993302934        3.9328609598       14.0492462993
  H         6.6271034956        4.2951624327       16.5646500752
  H         4.8947703666        5.1293083093       17.7570532615
  C         2.1990112481        5.8475978111       12.6629709207
  C         1.3920874231        4.7933645029       12.3205100601
  C         1.4687701763        4.2684708454       11.0348935352
  C         2.2447942228        4.9034082258       10.0303192067
  C         3.0385598439        5.9800512783       10.3471767165
  C         3.1184987646        6.3699613919       11.6909268015
  H         3.8472288519        6.9825337684       12.1141839046
  H         3.7117303186        6.5451453777        9.6503616622
  H         2.2528741590        4.4834329283        9.0379430420
  H         0.7702068912        3.4976483447       10.7350698397
  H         0.8330377175        4.2553529743       13.0843556807
