140

  C        14.9244043578       -0.5442682353        0.4120101924
  C        16.0021375349        0.0630245441        1.0620494062
  C        17.1111816127        0.6138621612        0.3674231237
  C        18.1743227162        1.2521196020        1.0729336034
  C        19.2201678592        1.7065546670        0.3244262392
  C        15.9944484199        0.3400763038        2.5668601528
  C        15.2615968866        1.4954375429        2.9635191694
  C        15.3103280785        1.9558633146        4.3002457602
  C        15.9507351017        1.2251646577        5.3094731729
  C        16.7345079626        0.0896287984        4.8647924626
  C        16.6895132842       -0.3580922774        3.5288102057
  H        18.1331245442        1.3784756756        2.1484185037
  H        20.0698191167        2.2105757133        0.7653998515
  H        14.6617151252        2.0187843137        2.3098713251
  H        14.8623398764        2.8854693217        4.6268591205
  H        16.0453688836        1.5487838561        6.3326503166
  H        17.2120308303       -0.5236899232        5.6402117582
  H        17.2158470838       -1.2643421122        3.2000555793
  C        14.8876115486       -0.6540177920       -0.9853633371
  C        13.8710036069       -1.5150806648       -1.6254764181
  C        12.8460311205       -2.0561525749       -0.8667922004
  C        12.8791591486       -1.9627685208        0.5641019298
  C        13.8488779759       -1.1932927153        1.2445864478
  C        17.0391091490        0.5497854135       -1.0861480089
  C        15.8707058310        0.0546177249       -1.7829717981
  C        15.7938648752        0.2342067260       -3.2594757063
  C        14.9037627048        1.1927931406       -3.7698052546
  C        14.8383892920        1.4797236937       -5.1185726333
  C        15.7320358168        0.8430779970       -5.9872778666
  C        16.6642282730       -0.0458880321       -5.4281940551
  C        16.6472107906       -0.4572090284       -4.1066689266
  H        17.2974240741       -1.2125442486       -3.6772803770
  H        17.3886608425       -0.5462675777       -6.1020793553
  H        15.7344809928        1.0233019801       -7.0797555567
  H        14.2720767297        2.3117601050       -5.4891925907
  H        14.2807010875        1.7132299644       -3.0750653229
  C        18.1287360262        1.2104845752       -1.8700781068
  C        19.1607153908        1.7533023138       -1.1118081910
  H        20.0727126959        2.2474945352       -1.5943075883
  H        18.1274199758        1.4091946023       -2.9184376449
  C        13.9743413824       -1.5207261951        2.7387426276
  C        14.6614092823       -2.7332512241        3.0010378895
  C        14.6633405597       -3.3612036264        4.2456191953
  C        13.9799856662       -2.7600750146        5.2759167617
  C        13.2365349118       -1.5677654827        5.0244010131
  C        13.2362618323       -1.0118300379        3.7454845041
  H        12.4613403268       -0.3439682518        3.6189878083
  H        12.7103841357       -1.0444986854        5.8183756034
  H        13.9542346558       -3.2082704690        6.2526242624
  H        15.2358688403       -4.2622713113        4.3891938583
  H        15.1163136601       -3.1262869428        2.1482844543
  C        11.8328885714       -2.6058470957        1.3112243214
  C        10.7823632206       -3.2767986189        0.6381985046
  C        10.7247388695       -3.2465798674       -0.7661983612
  C        11.7505982830       -2.7247343763       -1.4867148961
  H        11.7543877958       -2.7973771027       -2.5338370081
  H         9.9890416186       -3.8104235236       -1.2883349167
  H         9.9505336683       -3.6308422472        1.1571430431
  H        11.7588139772       -2.3573122486        2.3945722217
  C        13.8876929110       -1.8685140549       -3.0881694934
  C        14.7097368867       -2.9143691719       -3.5329989854
  C        14.6952911623       -3.4149387094       -4.8022417316
  C        13.8342159610       -2.8175241086       -5.6963466676
  C        13.0163666408       -1.6922812414       -5.3406189893
  C        13.0726413027       -1.2245076927       -4.0365540071
  H        12.3360347720       -0.4702923027       -3.6407476806
  H        12.2869783036       -1.2506566330       -6.0796371369
  H        13.8681293835       -3.2145431948       -6.6854188780
  H        15.3212027782       -4.2759973249       -5.1032687852
  H        15.5056156870       -3.3103672908       -2.9824646699
  C        11.1373274854        6.4815633569        0.4956814595
  C        10.2357652403        7.2918850802        1.2508825160
  C         9.1497622765        7.9017265599        0.6145080949
  C         8.0262280523        8.5285302730        1.3108120195
  C         6.9429701479        9.1037109875        0.6361240004
  C        10.3948153170        7.5694879156        2.7090992344
  C        11.3631928882        8.5042101869        3.1580691205
  C        11.4140230825        8.9318681522        4.4587591080
  C        10.4497033445        8.4543986411        5.4488617057
  C         9.4811540339        7.6638080865        4.9909823763
  C         9.4631646754        7.1765538716        3.6783962774
  H         8.0268327798        8.5117534790        2.3818742169
  H         6.0756901241        9.4845599799        1.1882354823
  H        12.0404236031        8.7804621118        2.4522203664
  H        12.1415964027        9.6748847592        4.6624674569
  H        10.4735384500        8.7949796821        6.4681790223
  H         8.7261515750        7.2239832762        5.7041407780
  H         8.6835037467        6.4109754267        3.3613959238
  C        11.0141167454        6.3799961348       -1.0065287237
  C        11.8926042089        5.5033018344       -1.6480508574
  C        12.9317901182        4.8528867952       -0.9303891430
  C        13.1579298284        5.0293717801        0.4555191019
  C        12.1361881823        5.6611916925        1.1767735898
  C         9.0383074349        7.8330792847       -0.8790618658
  C        10.0680565778        7.2325291595       -1.6642038715
  C        10.1389866752        7.4994032240       -3.1155324193
  C        11.0256305956        8.4827514553       -3.5729614239
  C        10.9544834083        8.8165820319       -4.9210803100
  C        10.2125689812        8.0845331428       -5.9049608862
  C         9.4452820331        7.0388696812       -5.4520089815
  C         9.3577088325        6.7972982272       -4.0406545077
  H         8.7286080125        6.0294103131       -3.7069991871
  H         8.8928052007        6.3866449284       -6.0627029771
  H        10.3728670630        8.5359152242       -6.8787429766
  H        11.6738548100        9.5672413137       -5.2810001741
  H        11.6880526985        9.0110684436       -2.8629816609
  C         8.0784987157        8.6397970874       -1.4455681923
  C         7.0167064142        9.2067914103       -0.7718055245
  H         6.1849766507        9.6973109835       -1.1960863451
  H         8.0841418292        8.7229567026       -2.5432582586
  C        12.1083502954        5.3405284058        2.5976228993
  C        11.2866299503        4.3020625822        2.9891679394
  C        11.2517397934        3.8120799307        4.3391766623
  C        12.1636548157        4.3428963426        5.2243708411
  C        13.1182758379        5.2843900479        4.8034847157
  C        13.1022393945        5.8041196608        3.5156582776
  H        13.8329175860        6.5806330313        3.2292551101
  H        13.8804905934        5.6273062831        5.4999344172
  H        12.1621892234        4.0800573299        6.2592556546
  H        10.4579255582        3.0843023273        4.6089389596
  H        10.5123930184        3.9586373549        2.3413047172
  C        14.4058759603        4.5167459273        0.9328822877
  C        15.3893670124        3.9196810857        0.1792232400
  C        15.0958461516        3.6846523120       -1.2035819127
  C        13.8632890911        4.0848597789       -1.6989869712
  H        13.7088142753        3.9398865384       -2.7853583219
  H        15.8331416754        3.0559323886       -1.7213354431
  H        16.3175763406        3.6408554550        0.5986568007
  H        14.5267156406        4.4456297648        2.0208512579
  C        11.8868450049        5.2603694476       -3.1143821237
  C        11.2178260925        4.1272021468       -3.6752276080
  C        11.4363819239        3.7096321894       -4.9431693463
  C        12.1924240086        4.4345915795       -5.9226715521
  C        12.8732034072        5.5375060846       -5.3913434728
  C        12.6744783193        6.0232155871       -4.0493003224
  H        13.2831814245        6.9256899391       -3.9231663981
  H        13.4909569682        6.2040807719       -5.9415773359
  H        12.4674688533        4.0707030265       -6.9275511138
  H        10.7960723655        2.8712156010       -5.1711136365
  H        10.4898689223        3.5822548912       -3.0936634387
