140

  C         4.0012412494       -0.0930339206       15.7189623640
  C         5.0548854711        0.6147869414       16.4396924390
  C         6.0626593738        1.1997443406       15.7551033015
  C         7.1106540395        1.9161390299       16.4220065723
  C         8.2226795681        2.4166182765       15.8227371088
  C         4.8824722651        1.1132359073       17.8354814325
  C         4.1056324833        2.2194022584       18.2078759886
  C         4.1251139819        2.6258505762       19.5801904637
  C         5.0876723765        2.1412028285       20.4925426950
  C         5.9025171366        1.0553778225       20.0747282672
  C         5.7820651282        0.5627243672       18.7893887486
  H         6.9962321284        2.0471117190       17.4701828362
  H         8.9499445902        3.0488426840       16.3574114515
  H         3.4591065353        2.6889418872       17.4857055118
  H         3.3984936912        3.3138481362       19.9445015242
  H         5.0979166691        2.4946161667       21.5453521464
  H         6.4763649716        0.5646556921       20.7858198092
  H         6.2997780419       -0.3148605728       18.4217872085
  C         4.0282085441       -0.0771397263       14.2175693458
  C         3.0558086235       -0.8881223940       13.5428857630
  C         1.9265259329       -1.4102910582       14.2209991890
  C         1.9556024108       -1.3607456334       15.6601279764
  C         3.0340260050       -0.8638571823       16.3944377848
  C         6.1587856719        1.1148374233       14.2792464030
  C         5.1349175234        0.5670971652       13.4962898893
  C         5.0685734801        0.9709149045       12.0496522858
  C         4.2508814512        2.0171669407       11.6298612322
  C         4.1500447505        2.3218667786       10.2589721958
  C         5.0702630075        1.7364085850        9.3397551342
  C         5.9909142924        0.7403586972        9.7556282704
  C         5.9514450770        0.4320663318       11.1263325011
  H         6.5908186055       -0.4027608769       11.4370539322
  H         6.7641272565        0.2224894653        9.1186123885
  H         4.9924803372        1.9639881944        8.2940774743
  H         3.4477696864        3.1169222780        9.9239507421
  H         3.5892126528        2.4813149032       12.3814476179
  C         7.3632770502        1.7655908096       13.6682252723
  C         8.3530717108        2.3149205017       14.4246429345
  H         9.1282909738        2.8080567281       13.8565835099
  H         7.4051921229        1.8615507941       12.5848310902
  C         3.1638325519       -1.2088523297       17.7934188084
  C         4.1277742537       -2.1804170894       18.1501234008
  C         4.2763288666       -2.5336817273       19.4978522953
  C         3.4085325241       -2.0554288684       20.5014258804
  C         2.4674671092       -0.9899286992       20.1325600047
  C         2.4265690098       -0.5873517852       18.8232981291
  H         1.7491390465        0.2200381015       18.5881855922
  H         1.8714486260       -0.5651279690       20.8959636167
  H         3.4644067033       -2.3804298932       21.5171277602
  H         5.1067166596       -3.2371368598       19.7826454305
  H         4.8429244123       -2.5175879163       17.4282369145
  C         0.8279805330       -1.9564769302       16.2413629335
  C        -0.2908710744       -2.5587030738       15.5689514989
  C        -0.2186305483       -2.6454674390       14.1681144381
  C         0.8788678976       -2.1354107773       13.5253842399
  H         1.0968591480       -2.3468588591       12.4875386012
  H        -0.9701466546       -3.2113946401       13.6118140790
  H        -1.0460379423       -3.0058890605       16.2832662170
  H         0.7860737572       -2.0401725454       17.3295884754
  C         3.1665028094       -1.1999889109       12.0865776860
  C         4.0101640933       -2.1820965906       11.5882460921
  C         3.8918056870       -2.6684755759       10.2814135888
  C         2.9273307136       -2.1912059922        9.4232569916
  C         2.1293308977       -1.1140146016        9.8657220973
  C         2.2510152951       -0.6649042225       11.1712021655
  H         1.5738550014        0.1557235217       11.5172714023
  H         1.5135236818       -0.6723694716        9.1137337866
  H         2.8087820375       -2.6851226356        8.3986967024
  H         4.5980933171       -3.4326295997       10.0235559050
  H         4.7487562051       -2.5140670093       12.2889174410
  C         0.6098604660        7.2294259287       15.2358287089
  C        -0.3719234609        7.8538537737       15.9671640391
  C        -1.4907428891        8.4116984735       15.3330637058
  C        -2.3880132694        9.3074552601       16.0136871289
  C        -3.4913713980        9.8363529034       15.3962559347
  C        -0.1803738603        8.1593772861       17.4137227505
  C         0.7120370119        9.2687359377       17.5379627951
  C         0.7699737324        9.9165575515       18.7764041187
  C         0.0003636686        9.3415708941       19.8557803391
  C        -0.9370787830        8.3442124660       19.6554389295
  C        -1.0066510063        7.6725155450       18.4254156849
  H        -2.2532182696        9.5599288942       17.0410428602
  H        -4.2067634536       10.3848356693       16.0083045379
  H         1.2953527311        9.7159994070       16.7257521426
  H         1.4232474086       10.7618513745       18.9833692248
  H         0.1840939374        9.7986842433       20.8287886840
  H        -1.5615363566        7.9067958290       20.4380331885
  H        -1.5992618482        6.7841741047       18.2213657337
  C         0.5134826839        7.2554442646       13.7894412041
  C         1.5584176643        6.6354310898       13.0929156068
  C         2.6910891315        5.9999727775       13.7263467029
  C         2.6611401674        5.8412633058       15.1643800101
  C         1.6363130988        6.4971749577       15.9075315518
  C        -1.6846269447        8.3611036612       13.8943676711
  C        -0.6109004159        7.8193581392       13.1726985152
  C        -0.7979359205        8.0906253007       11.6628660260
  C        -0.0566068063        9.1937835400       11.2059303802
  C        -0.2137319640        9.7114871257        9.8419465345
  C        -0.8745371542        8.9476024597        8.9251115657
  C        -1.5549628045        7.7633810832        9.3329030169
  C        -1.4796220408        7.3967006668       10.6661306694
  H        -1.9776582291        6.4660597782       10.9279709101
  H        -2.0164091588        7.1821856101        8.5626014699
  H        -1.0120486457        9.3073875642        7.8878618190
  H         0.5062415336       10.5024060309        9.6062369606
  H         0.6047742565        9.6951029223       11.9058112330
  C        -2.7833696225        9.0121794248       13.2507270517
  C        -3.7225116606        9.6995033179       13.9804828156
  H        -4.5064351349       10.2875776088       13.5321982074
  H        -2.8704041967        8.9537006438       12.1744937326
  C         1.5739693039        6.0190256380       17.3621468355
  C         0.8202743441        4.8761752357       17.7702501465
  C         0.8927082759        4.4009599206       19.0828158947
  C         1.6753165960        5.0564678586       20.0859026511
  C         2.4998962130        6.1187117699       19.6985689472
  C         2.3673607235        6.6113116233       18.3285592228
  H         3.0377167419        7.3996816126       17.9834334738
  H         3.1290336712        6.5144185455       20.5234286774
  H         1.8246518297        4.5654437322       21.0733966329
  H         0.2787965860        3.5549870404       19.4173795656
  H         0.2155957859        4.3706662917       17.0017722565
  C         3.7337867560        5.1548099743       15.8317643986
  C         4.8023852657        4.6832110254       15.1116199084
  C         4.8663978739        4.9560410512       13.6920152622
  C         3.8445443717        5.5769771587       13.0048557917
  H         3.9325692352        5.8237788160       11.9547738762
  H         5.7719327770        4.5890761011       13.1627132949
  H         5.6305184660        4.2021030267       15.6105005249
  H         3.6714229025        5.0891803897       16.8790288551
  C         1.5731059015        6.4385473891       11.6009759688
  C         1.1911618918        5.0793671500       11.1647917969
  C         1.4326639811        4.7532919213        9.8456238763
  C         1.9668126180        5.6830568393        8.9498000289
  C         2.4501693314        6.9401193628        9.4102169665
  C         2.2147945351        7.3144428219       10.6856435217
  H         2.6814456450        8.2803506585       10.9823477413
  H         3.1470319795        7.5435554656        8.7677747738
  H         2.2289258486        5.3424861012        7.9272511293
  H         1.3073413364        3.7327301242        9.4440480122
  H         0.7900867380        4.4141865460       11.9074295521
