140

  C         4.6587976628       -1.2150359207       13.8268127213
  C         5.6446436730       -0.4529529527       14.4810030162
  C         6.6774470147        0.2222619374       13.6922353667
  C         7.8094976179        0.8981284657       14.3411960710
  C         8.9217596001        1.3841713650       13.6707061727
  C         5.5275080717       -0.1640483786       15.9244813131
  C         4.9088527476        0.9851585672       16.5088403123
  C         5.0602690793        1.2728089648       17.9392172641
  C         5.7549441978        0.3769287664       18.7644162000
  C         6.4299614804       -0.6938221633       18.2331967402
  C         6.3236187050       -0.9554766558       16.8044418875
  H         7.8470763510        0.7858752499       15.4305757448
  H         9.7096871683        1.9602035693       14.1905465006
  H         4.4244354958        1.6654296391       15.7881430228
  H         4.5491422510        2.2167609504       18.3525518120
  H         5.7780003269        0.5438964774       19.8696248634
  H         7.1214868462       -1.3472788498       18.7959574669
  H         7.0004219205       -1.7167897333       16.3435969695
  C         4.5943261333       -1.2503964810       12.3387620136
  C         3.6434012417       -2.1118353086       11.6535440602
  C         2.5338503424       -2.5771431535       12.3790883002
  C         2.5518811542       -2.4676743020       13.8240426716
  C         3.6824371796       -1.9739148377       14.5684717417
  C         6.6375351850        0.1569302027       12.2810314680
  C         5.5905665483       -0.5067818394       11.6312107942
  C         5.5850567791       -0.3055467605       10.1655974592
  C         4.7450156896        0.7693443625        9.7384093024
  C         4.7424966478        1.2599933893        8.3941872746
  C         5.5649498755        0.6855244223        7.4275383835
  C         6.4872743562       -0.3707865442        7.8638593727
  C         6.4605665344       -0.8677356549        9.1952750522
  H         7.0846613387       -1.7228915341        9.4842798406
  H         7.2428313167       -0.8469601542        7.2156406633
  H         5.5156044222        1.1040970368        6.4185681091
  H         4.0653626746        2.0761870130        8.1187847394
  H         4.1592267687        1.4061738461       10.3947052983
  C         7.7688041117        0.7384496052       11.5700080050
  C         8.7848722399        1.4527288885       12.2212314523
  H         9.5624551810        1.9850908443       11.6247741023
  H         7.8061920783        0.9307343891       10.4860477211
  C         3.6806930034       -2.2082150017       16.0387538215
  C         4.0453066962       -3.4682153626       16.5424127176
  C         3.8704805425       -3.8450857159       17.9102636995
  C         3.1857524932       -2.9114810675       18.7387201217
  C         2.6186303667       -1.7177668807       18.2021469021
  C         2.9747256654       -1.4148279210       16.8998523940
  H         2.6124023223       -0.4022350884       16.5184856391
  H         1.9956937559       -1.0150530651       18.7393617578
  H         2.9460915271       -3.1192233177       19.8091091717
  H         4.3912498524       -4.6896802163       18.2539130755
  H         4.5904675880       -4.0877447006       15.9021149254
  C         1.4161504939       -3.0033458180       14.6075413388
  C         0.3557232260       -3.6505282980       14.0240904576
  C         0.2589642047       -3.6888158830       12.5314101433
  C         1.3449277738       -3.2188622256       11.8372188887
  H         1.4391380840       -3.3354606371       10.7374181702
  H        -0.5578353340       -4.1752799624       11.9563350905
  H        -0.4188284147       -4.1387520841       14.5542578641
  H         1.4306537249       -2.8618419517       15.6823505751
  C         3.7393979853       -2.3824715992       10.1256284052
  C         4.6655141313       -3.3447553307        9.6079222250
  C         4.5880255854       -3.7363825962        8.2381252252
  C         3.7069370697       -3.1370216844        7.3672147815
  C         2.7494051296       -2.2153364765        7.8891904024
  C         2.8140913389       -1.8004402265        9.2201004970
  H         1.9909459738       -1.1376356613        9.6105142503
  H         1.9543157046       -1.8047082601        7.1957053582
  H         3.6930434218       -3.5437212047        6.3674339000
  H         5.2394430617       -4.5659892364        7.8864160810
  H         5.4004247951       -3.7407981434       10.3304883470
  C         0.8726274453        6.1736866446       13.9958954868
  C        -0.1216635572        7.0376720164       14.6308363850
  C        -1.1893330231        7.5352866937       13.9055244625
  C        -2.3782705604        8.0964724512       14.5174463250
  C        -3.3103715009        8.8087310332       13.8360747495
  C        -0.0821545294        7.2931603251       16.1013318564
  C         0.5965086901        8.4159988176       16.4840650802
  C         0.5243832920        8.9099094172       17.8354959154
  C        -0.2328658063        8.1844635787       18.7750044278
  C        -0.9034414532        7.0640495055       18.3545047101
  C        -0.8196604971        6.6199444952       17.0402485425
  H        -2.4974009463        8.0672134078       15.6273593844
  H        -4.0712853358        9.2298126663       14.4435069009
  H         1.1667455721        8.9913733965       15.7694412155
  H         1.1901915329        9.7709840585       18.2117746454
  H        -0.4189671458        8.5025606809       19.8184025655
  H        -1.5201389281        6.4785438545       19.0817901184
  H        -1.3108240030        5.7083953239       16.6730397742
  C         0.8931659113        6.1557296677       12.5553532412
  C         1.9518837371        5.4102243498       11.9270964726
  C         3.0216086997        4.8718362966       12.6168744732
  C         2.9474885961        4.8544520831       14.0900239247
  C         1.8839186273        5.5065218655       14.7393921132
  C        -1.1897308716        7.5137451680       12.4876760645
  C        -0.0938270352        6.8518648090       11.7930573049
  C        -0.1584555441        7.0930477998       10.3075096737
  C         0.5987894711        8.1289430296        9.6599564488
  C         0.4598323928        8.3992754490        8.2741491906
  C        -0.5410044017        7.7214992314        7.5521620015
  C        -1.3781012765        6.7608738977        8.1605918947
  C        -1.1977482669        6.4888372767        9.4990715284
  H        -1.8363276719        5.7704452311        9.9660092124
  H        -2.1752865571        6.2603136408        7.6410669676
  H        -0.7013079077        7.9053536613        6.4642745023
  H         1.2089478615        9.0619685240        7.8002634285
  H         1.4247040814        8.6417941804       10.1927551312
  C        -2.2500198579        8.2356894466       11.7698721959
  C        -3.2898606094        8.9144558646       12.4281232551
  H        -4.1425726928        9.4141098767       11.8748526664
  H        -2.2246757993        8.3467772441       10.7089693477
  C         1.8665395625        5.1680343349       16.2437045480
  C         1.2585732784        3.9280763600       16.5849148700
  C         1.3108896431        3.5077225359       17.9237116548
  C         2.0232052340        4.2512646113       18.8736881518
  C         2.7585013209        5.4037411209       18.5303936196
  C         2.6318573721        5.8807876933       17.1608159540
  H         3.0747600840        6.7661941427       16.7593202289
  H         3.3449590794        5.8369929687       19.3226485166
  H         1.9332751926        3.8432068182       19.9291561855
  H         0.6529707996        2.7110526514       18.2308481376
  H         0.8107062832        3.3191356126       15.7667413116
  C         4.0599034390        4.1542550956       14.7164694310
  C         5.1354788901        3.6490853855       14.0150482538
  C         5.1706635868        3.7225820325       12.5869217218
  C         4.1335865450        4.3435476245       11.9198437475
  H         4.1004618644        4.2714574556       10.7952977382
  H         6.0348512964        3.3421265358       12.0676107567
  H         5.9478506928        3.1597510479       14.5318579321
  H         4.0775395579        4.0311923078       15.8204886241
  C         1.8551494267        5.1165411514       10.4661621528
  C         1.1129953576        4.0126633518       10.0332805056
  C         1.1147569344        3.6371290683        8.7083861001
  C         1.7396454049        4.3590150829        7.7362691213
  C         2.5432506699        5.4198242380        8.1523016020
  C         2.6150757228        5.7676592477        9.5149152721
  H         3.2905986849        6.5364529977        9.8185742422
  H         3.0147526204        6.0292290933        7.3525992445
  H         1.6480170900        4.1258772026        6.6520827825
  H         0.4002977866        2.8468281874        8.3219397321
  H         0.5968175462        3.4183794612       10.8500253788
