140

  C        14.6638834199       -0.2404382134        0.5901710020
  C        15.6565478830        0.5269265896        1.2794825630
  C        16.6825252476        1.1507546072        0.6351732590
  C        17.8362218122        1.7305362435        1.3598666081
  C        18.8909674348        2.2878697666        0.6965177150
  C        15.7001277025        0.6906607544        2.7789350596
  C        14.8811154801        1.7049098255        3.2862514082
  C        15.0342537387        2.0883644122        4.6551236090
  C        15.7869639356        1.2508620390        5.4779895947
  C        16.4931761377        0.1934318553        4.9239451551
  C        16.5612251922       -0.0548832898        3.5912992997
  H        17.8534833577        1.6592177224        2.4480301342
  H        19.6994542554        2.6473661151        1.3012960006
  H        14.1796203705        2.3381633717        2.6306892006
  H        14.5477747880        2.9562673245        4.9705721134
  H        15.8063434607        1.4530557002        6.5467409254
  H        17.1080383332       -0.3953613778        5.5475780898
  H        17.2427769335       -0.7706816546        3.1613227195
  C        14.7394040970       -0.3237735220       -0.9040124914
  C        13.8381690855       -1.0916983132       -1.6536914055
  C        12.6678345959       -1.5424827087       -0.9928359766
  C        12.5064930446       -1.4322948248        0.4750205966
  C        13.5967112009       -0.8969874694        1.2373515600
  C        16.7464583487        1.1206427809       -0.7398056623
  C        15.7718599486        0.4347040740       -1.5911610202
  C        15.8640808938        0.7172406403       -3.0362814298
  C        14.9496321072        1.6025308882       -3.6257778879
  C        15.0880621426        1.9305150013       -4.9405981063
  C        16.0873594113        1.3711495294       -5.7471691492
  C        17.0170822701        0.4674339736       -5.1641018676
  C        16.9239850303        0.1949172804       -3.8075864536
  H        17.5097093403       -0.5446169459       -3.2501651134
  H        17.6970391940       -0.1285297763       -5.7907979508
  H        16.2035387340        1.8298194518       -6.6981829166
  H        14.3845387946        2.5208040534       -5.5226347187
  H        14.0856925884        1.9481731746       -3.0436372918
  C        17.8079637277        1.8517765280       -1.3549679155
  C        18.8510705401        2.4610893672       -0.6944711125
  H        19.6937264756        3.0270689381       -1.1581139735
  H        17.8192527875        1.9046467196       -2.4218541801
  C        13.6139393247       -1.2765392783        2.6480155979
  C        14.4369562310       -2.4008556206        2.9619819175
  C        14.6793390318       -2.9275212726        4.2283794919
  C        14.0144338564       -2.2887427114        5.3167267448
  C        13.1094988429       -1.2469171545        5.0635651649
  C        12.9879804414       -0.6962595474        3.8182094193
  H        12.4255821400        0.1980327812        3.6028416167
  H        12.6830788482       -0.8710810721        5.9533991179
  H        14.2958792078       -2.5667607784        6.4243564392
  H        15.2071144713       -3.8686361933        4.3839260608
  H        14.8850263677       -2.8676636250        2.0517417076
  C        11.3302354836       -1.9171205147        1.0909458836
  C        10.3669465341       -2.5001870296        0.3267527163
  C        10.5898555911       -2.8122361463       -1.0852840199
  C        11.8060081350       -2.4870898011       -1.6658480380
  H        12.1328715765       -2.7842618058       -2.6892163621
  H         9.8375187385       -3.3611067080       -1.5636285247
  H         9.4303460614       -2.7446315353        0.6957068465
  H        11.2195173599       -1.8661447051        2.1750775935
  C        14.0687301421       -1.4903008195       -2.9967279284
  C        15.0573518311       -2.4441263215       -3.2507662011
  C        15.1622850038       -3.1229120024       -4.4846255110
  C        14.2281957533       -2.7824329212       -5.4577908983
  C        13.2120612598       -1.8368025597       -5.2544970951
  C        13.2167153446       -1.1071538829       -4.0552359019
  H        12.4604966163       -0.3369292524       -3.7885819691
  H        12.5064126500       -1.4489048285       -5.9719668591
  H        14.3014799248       -3.3075258126       -6.3884074125
  H        15.9828803582       -3.7908190675       -4.7221179136
  H        15.7469119872       -2.8079131977       -2.4565097935
  C        11.0860828646        6.8104500927        0.7584778212
  C         9.9219975678        7.4168650089        1.3581814937
  C         8.7927336123        7.8484219501        0.6122782427
  C         7.5255492785        8.3223398360        1.1207472970
  C         6.6127393986        8.9867412992        0.3646427038
  C         9.9434330929        7.9266156600        2.7319568425
  C        10.6514612282        9.1526928163        3.0873438009
  C        10.4997250687        9.7241506413        4.3474410537
  C         9.7293544622        8.9808999144        5.2774389548
  C         9.0707380155        7.8259006999        4.9684428904
  C         9.1645549847        7.2839175148        3.6723625906
  H         7.3718211298        8.2033141788        2.1688263641
  H         5.5844394177        9.1371421429        0.7015837736
  H        11.2190480874        9.6179922045        2.3590460085
  H        11.0543522990       10.5538603414        4.5935649811
  H         9.6671540976        9.3431551516        6.2530414306
  H         8.5490348984        7.2592122607        5.6551450259
  H         8.4479520743        6.5020836369        3.4271366654
  C        11.0752710960        6.6639779790       -0.7508442814
  C        12.1432183123        5.9375056859       -1.3598615396
  C        13.2653982829        5.5084366869       -0.6246472497
  C        13.3366817711        5.7009691510        0.8536927412
  C        12.2480402682        6.3147461108        1.4691646464
  C         8.9056516687        7.8374742508       -0.8297350056
  C        10.0412150009        7.3185254147       -1.4967710080
  C        10.1506936988        7.6105069494       -2.9703063374
  C        10.9032085054        8.7249960878       -3.3654569775
  C        10.9626726023        9.1686873867       -4.7217191605
  C        10.1288291869        8.5157658661       -5.7194179249
  C         9.3778356553        7.4455901870       -5.2465150799
  C         9.3686017219        6.9467232898       -3.9381079395
  H         8.8049464039        6.1101983315       -3.5982160625
  H         8.7269733200        7.0455533727       -5.9646148374
  H        10.1276236378        8.8748215196       -6.7165342728
  H        11.6681036906        9.9360393505       -5.0380600513
  H        11.5801786821        9.2219293610       -2.6842108011
  C         8.0150208791        8.6981772118       -1.6050706775
  C         6.9242719674        9.2713965409       -1.0170032651
  H         6.3646256163        9.9188245806       -1.6378876754
  H         8.2441407306        8.9267929146       -2.6783970840
  C        12.1665950187        6.0799029071        3.0027784712
  C        11.4496658811        4.9248389840        3.4888859348
  C        11.5487048035        4.6911324738        4.8847876196
  C        12.1590284658        5.5345136505        5.7749822067
  C        12.8432833828        6.6166828334        5.2557602679
  C        12.8462141353        6.8947924340        3.9296761333
  H        13.2642066701        7.8599670612        3.6387629923
  H        13.4098421344        7.3406882858        5.8403596840
  H        12.0151290068        5.4343081635        6.8489870112
  H        10.9481281943        3.8787905159        5.2926591268
  H        10.8700637921        4.3161873939        2.8197480728
  C        14.4595012956        5.1298147944        1.6087426795
  C        15.5051209739        4.5187630331        0.9777994829
  C        15.3662328654        4.2938824525       -0.4256445991
  C        14.3473692876        4.7721697743       -1.1232405698
  H        14.3499191703        4.6277235411       -2.2100235866
  H        16.1284385419        3.7633096407       -0.9526001720
  H        16.2980571883        4.0459680024        1.5596444427
  H        14.4219321535        5.2652857025        2.6290534245
  C        12.1096488056        5.5451743249       -2.8504850117
  C        11.2400922504        4.5051443385       -3.2154253832
  C        11.3717535591        3.8612230092       -4.4219623434
  C        12.1569273132        4.4845392870       -5.4418964887
  C        12.9186663846        5.6254021968       -5.1250880009
  C        12.9155679365        6.1730045771       -3.8529415015
  H        13.4922084871        7.0083417565       -3.5447016249
  H        13.4912079661        6.3100524519       -5.7627127284
  H        12.4281297635        4.0257865776       -6.3633523320
  H        10.7893618098        2.8862656624       -4.6728091737
  H        10.5279769196        4.1503631126       -2.4651921916
