140

  C         4.3520651732       -0.1009499771       15.6082357488
  C         5.5035911332        0.4559246935       16.3483263329
  C         6.5379978583        1.0761553493       15.5780314405
  C         7.5706123818        1.8642943345       16.2404702864
  C         8.5895526736        2.4521786426       15.5060894166
  C         5.3916351917        0.7587793141       17.8010211501
  C         4.5637119585        1.7641091535       18.1959019064
  C         4.6554844617        2.3305776815       19.4511987609
  C         5.5083815495        1.8139003159       20.4389886375
  C         6.4055519996        0.8163455360       20.0385459497
  C         6.3537508974        0.2687635631       18.7570452399
  H         7.5437242438        1.9626686488       17.3644236192
  H         9.1907046235        3.1659282118       16.0639825053
  H         3.8730474038        2.1904180427       17.4514335494
  H         3.9405550166        3.1410099266       19.7168640198
  H         5.5475038926        2.1687108886       21.4625925144
  H         7.2115841909        0.4697429527       20.6903942926
  H         6.9173656970       -0.6203064822       18.3653743340
  C         4.3856496333       -0.2583659692       14.1587301489
  C         3.3268927914       -0.9046538819       13.4923293661
  C         2.1992907192       -1.3726466865       14.2092276009
  C         2.1557725829       -1.2534783093       15.6709419982
  C         3.2808122184       -0.6792981596       16.3716246355
  C         6.5059382770        0.9804146065       14.1189905763
  C         5.4452341430        0.4593876489       13.3905879450
  C         5.2612710481        0.7539869077       11.9377443869
  C         4.3854637248        1.7624718601       11.5761784450
  C         4.2887385308        2.2262861005       10.2565571154
  C         5.1601049130        1.6649123736        9.2752975790
  C         6.0547133211        0.6256305298        9.6399847987
  C         6.0633278893        0.2264609234       10.9600659053
  H         6.7656709354       -0.6108919391       11.1688062593
  H         6.9473645039        0.2585142362        9.1050866451
  H         5.0846766067        2.1961101403        8.3621711594
  H         3.7168966977        3.0746970130        9.9770484144
  H         3.8372834662        2.2200708557       12.4343470453
  C         7.5856576423        1.6783654138       13.4777302151
  C         8.5857181073        2.3652331427       14.1178869197
  H         9.3560490272        2.8919027392       13.4712091264
  H         7.4578870827        1.7901088879       12.4081771656
  C         3.3802014319       -1.1068435389       17.8676261319
  C         4.1694842053       -2.1664133006       18.1911650041
  C         4.2931622891       -2.6304675697       19.4251263164
  C         3.6502042102       -2.0293450401       20.5188842635
  C         2.8168275227       -0.9231356563       20.2103805779
  C         2.6596939080       -0.4674839945       18.8661246701
  H         1.9336268033        0.3293786330       18.6716646245
  H         2.2182333475       -0.4429258565       21.0334509361
  H         3.9250009260       -2.2563866416       21.6004519886
  H         4.8826823585       -3.5426471361       19.5249611252
  H         4.7797775584       -2.6821891893       17.4381926863
  C         0.9826712573       -1.7782611426       16.3297013961
  C        -0.0624815211       -2.3590123750       15.6397732023
  C         0.0374538384       -2.5786090962       14.2556406577
  C         1.1395379183       -2.1252188180       13.5847626902
  H         1.1556911566       -2.3872189922       12.5555899030
  H        -0.7466758933       -3.1553138015       13.7527323028
  H        -1.0169660185       -2.6155073623       16.1138785092
  H         0.8949358437       -1.5477462803       17.3355723958
  C         3.4885174282       -1.3795998270       12.1094954556
  C         4.2869339653       -2.4403810161       11.7195992638
  C         4.4158993062       -2.8455121927       10.3854854764
  C         3.5619542832       -2.2013817392        9.4470417415
  C         2.5993824695       -1.2582658197        9.8079008412
  C         2.5716446436       -0.8382609852       11.1455090422
  H         1.9348152205       -0.0384571696       11.4964452605
  H         1.8121234790       -0.9891522027        9.0699292304
  H         3.6036159763       -2.4449253796        8.3700275556
  H         5.1676630036       -3.6167179101       10.1424151277
  H         4.8897989181       -2.8714122194       12.4881373077
  C         0.8487965647        7.0832805479       15.9431951770
  C        -0.2166691856        7.7040249418       16.6728373682
  C        -1.3529245729        8.1849918953       15.9529168148
  C        -2.3700742391        8.9116049859       16.6107843908
  C        -3.3258896764        9.6212003468       15.8918893250
  C        -0.0779446285        8.2241149743       18.1028439445
  C         0.5499322822        9.4758413183       18.3405266698
  C         0.5020042503       10.0653699964       19.6265363579
  C        -0.0824910729        9.3994874963       20.7037322893
  C        -0.5996724803        8.1649722498       20.4798170585
  C        -0.7182978278        7.5918133018       19.1986392150
  H        -2.4267115513        8.8770359936       17.7047768362
  H        -4.0969122138       10.0428971695       16.5268903672
  H         1.0586243027        9.8654493646       17.5035620545
  H         0.9697872897       11.0821020918       19.7178964202
  H        -0.0677398485        9.6990315213       21.7608978127
  H        -0.9077312105        7.5555198594       21.2914246684
  H        -1.2415951746        6.6204708508       19.1244805648
  C         0.8882264644        7.0259179253       14.4937410730
  C         1.9259831835        6.3725776885       13.7838409484
  C         2.9982014551        5.8305451622       14.5834971185
  C         3.0022443656        5.7614064149       16.0185804772
  C         1.8618762408        6.3964903963       16.6773773756
  C        -1.2921628717        8.1968680894       14.4888432589
  C        -0.2013600723        7.6603913711       13.7701323254
  C        -0.2057024983        7.8042156354       12.2532522356
  C         0.6244680750        8.7904772083       11.7248553145
  C         0.5340641830        9.2596792192       10.4339309116
  C        -0.3410707667        8.5765682460        9.5463380511
  C        -1.0901278233        7.5201824140        9.9534751159
  C        -1.0990040000        7.2153351351       11.3448247148
  H        -1.9395047010        6.6517406376       11.6861098113
  H        -1.8540222524        7.1065866839        9.3122884866
  H        -0.3606753634        9.0894837990        8.5588465690
  H         1.0136359633       10.2083742924       10.1286525268
  H         1.3229458562        9.2949766009       12.3701747021
  C        -2.3038139232        9.0289932087       13.8332748180
  C        -3.2742611980        9.6289846865       14.4870502063
  H        -4.0063768247       10.2147330799       13.9326558573
  H        -2.3095498631        9.0573879607       12.7296584277
  C         1.7147452598        6.0457207817       18.1117800946
  C         0.8366035543        5.0168548341       18.5624770522
  C         0.8036412935        4.6728741530       19.9438342187
  C         1.7007157769        5.2666271466       20.8486042612
  C         2.4218170335        6.3979840497       20.4652768182
  C         2.4419225012        6.7433551200       19.1398329958
  H         2.9720284695        7.7060820840       18.9144068453
  H         2.9306995540        7.0885207204       21.1261784927
  H         1.6475366072        4.8851353681       21.8947803304
  H         0.1122413078        3.8517445165       20.2130101273
  H         0.3222356287        4.4425679048       17.7975738486
  C         4.0416099537        5.0937978690       16.6987841806
  C         5.0867135280        4.4910506090       16.0093118952
  C         5.1907064020        4.6234382786       14.5881343121
  C         4.1881744162        5.3086673991       13.8880192199
  H         4.2827846431        5.4395785649       12.8036230431
  H         6.0545490997        4.2299850536       14.0416181388
  H         5.9067483169        4.1133990302       16.5587847349
  H         4.0540428510        5.0435420499       17.7707310376
  C         1.9773316578        6.1074330675       12.2906329840
  C         1.0784496890        5.1279921396       11.7381499370
  C         1.3291331870        4.6814140471       10.4262861812
  C         2.2741144555        5.2582105133        9.5376027713
  C         2.9950185316        6.3501737159       10.1031901042
  C         2.9425460001        6.6334231421       11.4897885728
  H         3.5935990507        7.4285007454       11.8484085849
  H         3.6750295973        6.9487063331        9.4628214941
  H         2.2984507046        5.0311291265        8.5165734990
  H         0.7125151930        3.9076503382       10.0835527319
  H         0.2290235424        4.6842734064       12.2929687841
