140

  C        11.4365069804        1.1026308205        1.5885815161
  C        12.4849720766        1.8444787015        2.3141619280
  C        13.5288239597        2.5040947126        1.6495724062
  C        14.6208248048        3.1017611301        2.3261069353
  C        15.6222335670        3.7907613757        1.6699629293
  C        12.4203468103        2.1537639569        3.8394867197
  C        11.7443092434        3.3313446819        4.2273193971
  C        11.9977229185        3.9105530498        5.5041829781
  C        12.9160966952        3.3393727258        6.3881432274
  C        13.4841308435        2.0947493817        6.0339623065
  C        13.2496519625        1.5414412863        4.7961829731
  H        14.6722272611        3.0777378163        3.3807024798
  H        16.4418699001        4.1959753907        2.2843809914
  H        11.0110180866        3.7684760820        3.5562027622
  H        11.4724008443        4.8029320873        5.7503696763
  H        13.1818268194        3.8677786083        7.3161778053
  H        14.1370705158        1.6631110717        6.7807706075
  H        13.5951714229        0.5176685948        4.7091154170
  C        11.4351681186        1.2327782981        0.1034261892
  C        10.4411999930        0.5570455371       -0.6339947086
  C         9.2948956637        0.0001550481       -0.0455233968
  C         9.2142147972       -0.1257803273        1.4155314855
  C        10.3705421291        0.3683262020        2.1573858879
  C        13.4802629293        2.5979960932        0.2117179837
  C        12.4719813528        1.9687635063       -0.5514688535
  C        12.5141981136        2.3297685561       -2.0116995706
  C        11.7720447730        3.4443205629       -2.3861863581
  C        11.7763578272        3.9624869660       -3.6667928091
  C        12.6257234353        3.4763231861       -4.6555337764
  C        13.3628500615        2.3561130828       -4.3067637064
  C        13.3552995034        1.8007389313       -3.0277169449
  H        13.8835270196        0.8553425285       -2.8280885466
  H        14.0584533019        1.9171406981       -5.0273420394
  H        12.6937183195        3.9420514026       -5.6557607318
  H        11.1464028823        4.7850128084       -3.9822928177
  H        11.0286233024        3.7205214823       -1.6409532254
  C        14.5534772321        3.3239944488       -0.4716812238
  C        15.5748189850        3.8999696899        0.2060802788
  H        16.3923541251        4.3779065975       -0.4087393980
  H        14.4976293594        3.3505884730       -1.5771336052
  C        10.3581930733        0.0704851859        3.6448526624
  C        11.2847718544       -0.8298090246        4.1505504371
  C        11.3843870172       -1.0679361652        5.5099982421
  C        10.6128400070       -0.3009084319        6.4273926591
  C         9.5879927726        0.4648523214        5.9259932153
  C         9.5309234358        0.6776967776        4.5665281251
  H         8.7403141452        1.3241989616        4.1919984026
  H         8.9380566863        0.9742669766        6.6338904310
  H        10.7105366028       -0.4620351791        7.4850016187
  H        12.1391090582       -1.6458149572        5.9645370391
  H        11.9378163456       -1.3375277950        3.4568119433
  C         8.1591100523       -0.9278251261        1.9638732935
  C         7.2548457013       -1.6464756840        1.1613318299
  C         7.4107550475       -1.5161638296       -0.2307957223
  C         8.3664759708       -0.7064590514       -0.8292397830
  H         8.4695543474       -0.6355603659       -1.9331458843
  H         6.6051459412       -1.8930938061       -0.8988302502
  H         6.4830314217       -2.3755471260        1.5614547464
  H         8.2260063713       -1.2731432605        3.0486695392
  C        10.6269657236        0.3166709574       -2.0935813195
  C        11.2342497325       -0.8689297995       -2.5627324047
  C        11.1163272507       -1.3679537265       -3.8545485686
  C        10.5526429727       -0.5757998672       -4.8568005828
  C         9.8910867113        0.5759727965       -4.4978942611
  C         9.8427610577        1.0043406636       -3.1131608801
  H         9.3930158039        1.9597625551       -2.7424449653
  H         9.3408625492        1.1229598505       -5.2550834016
  H        10.6268259386       -0.7983634760       -5.9034660079
  H        11.6138232291       -2.3301861800       -4.0790080023
  H        11.7516699461       -1.4487832763       -1.8136220340
  C         7.8383756879        8.0566411159        1.4377154165
  C         6.8435842679        8.8338650591        2.1146196021
  C         5.7342959150        9.3826290525        1.4089140603
  C         4.6737902276       10.1161031883        2.0996034196
  C         3.6270474551       10.6792790363        1.3951894332
  C         6.9385662760        9.2320179574        3.6058055289
  C         7.7293408819       10.3206434358        4.0319637445
  C         7.5859460950       10.8501697906        5.3369967831
  C         6.7032331782       10.2505591965        6.2129073859
  C         5.9771751484        9.1235323269        5.8317906965
  C         6.0717178952        8.6286565005        4.5062668780
  H         4.6908572709       10.0754358883        3.1909170721
  H         2.7954363103       11.1033882940        1.9300488221
  H         8.3475408778       10.7507115923        3.2653520491
  H         8.2004320127       11.7350370535        5.6680632180
  H         6.5881278302       10.5064590082        7.2995182486
  H         5.2771500031        8.7120873554        6.5247719296
  H         5.4460379834        7.8411524999        4.1137242686
  C         7.8592791420        8.0396180842       -0.0396262404
  C         8.9696976279        7.4369687702       -0.6848313032
  C        10.1148467204        6.9970155506        0.0301787013
  C        10.0945059755        7.0312970804        1.4783763344
  C         8.9317881775        7.4502125987        2.1084339465
  C         5.8044390006        9.4128822395        0.0008494942
  C         6.8435567787        8.7948935341       -0.7386665839
  C         6.8809793252        9.1113895380       -2.2142833148
  C         7.8487877639       10.0305710306       -2.6817923924
  C         7.7848664680       10.6311493089       -3.9745535440
  C         6.8019355343       10.2705398602       -4.8778443264
  C         5.9438722995        9.2620991637       -4.4404574286
  C         5.8734921487        8.7754402147       -3.1642514271
  H         4.9539958028        8.1986852065       -2.9664740988
  H         5.1578080793        8.9754082922       -5.1322046360
  H         6.8260335568       10.6799747767       -5.8852697602
  H         8.6656513092       11.1912997307       -4.3406940580
  H         8.5722362385       10.3715798668       -1.9816652543
  C         4.7464195191       10.1262841623       -0.6617813198
  C         3.6822824132       10.7341596332       -0.0294981755
  H         3.0030026753       11.3836053533       -0.5387225429
  H         4.8897194341       10.2441559132       -1.7431626151
  C         8.8633483329        7.1417530239        3.5843437196
  C         8.0600380950        6.1323491958        4.1668154137
  C         8.0394863432        5.8464724076        5.5225300732
  C         8.8751403130        6.4860063389        6.4278237527
  C         9.7184174888        7.4579412503        5.9499526797
  C         9.6718248674        7.8298092786        4.5345623611
  H        10.5129814791        8.4357516608        4.1964022331
  H        10.3382615622        7.9696007658        6.7026194658
  H         8.9159936928        6.3784299362        7.5051209116
  H         7.4344235915        4.9843930347        5.8785598583
  H         7.3771495374        5.6665757472        3.4515993701
  C        11.3729898109        6.6583355973        2.1440850701
  C        12.4169075566        6.0833619100        1.4865864344
  C        12.3187899583        5.9141415782        0.1030010614
  C        11.1832554652        6.3152508675       -0.5889269332
  H        11.2389090340        6.2071770092       -1.6793898269
  H        13.1897613700        5.4960825281       -0.4336414552
  H        13.2976588540        5.6816419530        1.9650947197
  H        11.4275466842        6.7126203846        3.2404662267
  C         8.8872461845        7.1327800820       -2.1493589993
  C         8.1054479734        6.0425475028       -2.5703962723
  C         8.1073434258        5.6384600915       -3.9371025251
  C         8.9104769762        6.3103835070       -4.8675302022
  C         9.6589087310        7.4206873150       -4.4258325206
  C         9.6614620854        7.8206399773       -3.0726220671
  H        10.2005064939        8.7296794046       -2.8401531211
  H        10.3614761994        7.8580210688       -5.1588143660
  H         8.8630333878        6.0541824141       -5.9612002207
  H         7.4001440956        4.8678208350       -4.2703634569
  H         7.4175752286        5.4581904818       -1.8977032185
