140

  C        14.3206228366       -0.0417844991        1.1373919606
  C        15.3628166536        0.6737960076        1.8428259762
  C        16.4005999629        1.2210307066        1.0806952713
  C        17.6160308368        1.8398770976        1.6367858982
  C        18.5545862754        2.4399146155        0.8656249456
  C        15.2643811989        0.9314333953        3.2413525540
  C        14.5016597739        2.0471420224        3.5895113567
  C        14.4687823065        2.5000558986        4.9505353424
  C        15.2611621970        1.9585366161        5.9385556192
  C        16.1140131366        0.9128391755        5.5154189871
  C        16.0587229368        0.3609662629        4.2787318422
  H        17.7447111087        1.7090712788        2.6742855512
  H        19.4761183666        2.8171768904        1.2616886319
  H        13.9678050877        2.5414867283        2.7619446437
  H        13.7319310832        3.2716410489        5.2835206331
  H        15.2416786643        2.4585560564        6.9479994020
  H        16.6903925213        0.3991011587        6.2881753843
  H        16.6299923320       -0.5756826294        4.0374410161
  C        14.2054798588        0.0174700569       -0.3370011927
  C        13.0858158522       -0.6094696201       -1.0116462831
  C        12.0197353634       -1.2779381720       -0.2752562843
  C        12.1573316183       -1.3289244360        1.2049425359
  C        13.3117349200       -0.7736009500        1.8632929882
  C        16.3399725172        1.1939842982       -0.4094321503
  C        15.2016576378        0.6517158794       -1.0882803916
  C        15.0737283104        1.0573070179       -2.5297795886
  C        14.5225084191        2.3011592264       -2.8570132218
  C        14.6313985152        2.7762721604       -4.1614725960
  C        15.4142594821        2.0654373669       -5.1061512820
  C        15.9653024216        0.8558042385       -4.7756787814
  C        15.7631820137        0.3034593629       -3.4775829078
  H        16.2319785814       -0.6857830525       -3.2584172423
  H        16.5941963146        0.3792229796       -5.5617137132
  H        15.5725331618        2.5500897182       -6.0824586923
  H        14.0910788804        3.6617616236       -4.3846522788
  H        13.9329337564        2.8255950528       -2.0783250116
  C        17.4442647579        1.8268723583       -1.1816734831
  C        18.5239052144        2.4041247448       -0.5609952844
  H        19.3422858775        2.8403311707       -1.1194785279
  H        17.3810176991        1.7999359755       -2.2874702498
  C        13.3130784460       -0.9526055112        3.3207944442
  C        14.1036225246       -1.9512464774        3.8636468620
  C        13.9968524458       -2.2878252979        5.1968347021
  C        13.0506259656       -1.6547322953        5.9698746563
  C        12.1952230743       -0.6284186484        5.3954499638
  C        12.3525584929       -0.2776806334        4.0718671326
  H        11.6836535101        0.3741200995        3.4751902943
  H        11.3959277044       -0.1010480195        5.8978934763
  H        12.8130511124       -1.9375084935        6.9561271887
  H        14.5233626614       -3.1630367463        5.6675860615
  H        14.8325122011       -2.4153709628        3.2268712880
  C        11.0929836086       -2.0370426189        1.9587205343
  C         9.9787459960       -2.4395517405        1.2622001755
  C         9.8730003742       -2.3620971854       -0.1569272377
  C        10.8581499509       -1.8229352570       -0.9237675468
  H        10.6448261141       -1.6663604330       -2.0033602400
  H         8.9382203094       -2.7861422409       -0.5966255646
  H         9.0654418484       -2.8788095342        1.7393110792
  H        11.1089105503       -2.0545642533        3.0288962693
  C        13.0536777835       -0.9424521767       -2.4835958193
  C        13.8220891799       -1.9990364849       -2.9807225218
  C        13.9184844961       -2.2565688092       -4.3561525752
  C        13.1124678924       -1.5685453845       -5.2940745674
  C        12.2831353854       -0.5736507975       -4.8156391657
  C        12.2429374764       -0.2237015948       -3.4413158274
  H        11.6549872877        0.6728854746       -3.1495935949
  H        11.5559195302        0.0329657268       -5.3875506580
  H        13.2264500741       -1.7141011678       -6.3371680213
  H        14.5436589572       -3.0975272567       -4.6099476228
  H        14.4743315068       -2.5351056052       -2.2514477837
  C        10.7891492042        7.3964643801        1.0149000798
  C         9.8042467348        8.1960980182        1.7425268539
  C         8.6087452142        8.6980846700        1.0261069235
  C         7.4279191058        9.2797175462        1.6531910917
  C         6.4345202202        9.9574579163        1.0092618758
  C         9.8471546265        8.4015153835        3.2467179896
  C        10.6487105339        9.3674091554        3.8648753519
  C        10.5404669417        9.7554297099        5.2264311149
  C         9.6360025456        9.1012522075        6.0860393502
  C         8.8127206341        8.1261889191        5.4507624383
  C         8.8382926723        7.8689442285        4.0502887215
  H         7.3540127518        9.2524609268        2.6984749682
  H         5.4813393408       10.1661980935        1.5126375389
  H        11.4018875611        9.9238649651        3.2282051941
  H        11.2253707469       10.4778527934        5.6028914475
  H         9.5657019727        9.3178124724        7.0893109315
  H         8.0781494736        7.4843295044        6.0054219524
  H         8.1108627624        7.2480148653        3.5926649516
  C        10.7536355320        7.4760609021       -0.4143101119
  C        11.8610509570        6.8638608527       -1.0346904555
  C        12.9339206806        6.2604576959       -0.4241481067
  C        12.8700209209        6.1441063377        1.0142506131
  C        11.7805656471        6.7238007903        1.7595103694
  C         8.6108276562        8.7459695058       -0.3537767021
  C         9.6638691974        8.1375534680       -1.0552951813
  C         9.7841787946        8.4726327027       -2.5813808775
  C        10.4254533162        9.6062528607       -3.0905274533
  C        10.2806195134        9.9243625715       -4.4514113609
  C         9.5485256929        9.0778969936       -5.2557805817
  C         8.9248518988        7.9315956235       -4.8366059863
  C         9.0339722731        7.7153581824       -3.4648472604
  H         8.6364112100        6.8211809927       -2.9742736291
  H         8.2588623204        7.3330573255       -5.4668979419
  H         9.4017941602        9.3699828196       -6.2867709431
  H        10.6664407778       10.9015321406       -4.7779596417
  H        10.8957899769       10.2590002787       -2.3489386391
  C         7.5469564979        9.4780414950       -1.0321530256
  C         6.4747582174       10.0909330115       -0.3670604313
  H         5.7079973992       10.5824854003       -0.9324322838
  H         7.5899384891        9.6251071925       -2.1167930129
  C        11.8232681757        6.2835143189        3.1946957349
  C        11.1960960017        5.1309941189        3.5895353811
  C        11.2597850460        4.6667571188        4.9252663436
  C        12.0945474850        5.3479437215        5.8082392652
  C        12.6399620961        6.6377770755        5.5253148035
  C        12.5641179072        7.0483103917        4.1860636270
  H        12.9583667876        7.9963978164        3.8933970230
  H        13.1277040904        7.2083075329        6.3161004374
  H        12.3819473016        5.0184551352        6.8070311574
  H        10.7340884592        3.7992926031        5.3111431404
  H        10.6701516588        4.6015186483        2.8510281122
  C        13.9379369209        5.3914696351        1.6051244360
  C        15.0015624718        4.9419273958        0.8836234883
  C        15.1298303371        5.0517441632       -0.4934704339
  C        14.0819899875        5.7357145967       -1.0789515261
  H        14.1907938202        5.9599715175       -2.1760368802
  H        16.0207585121        4.7957910585       -1.0790413258
  H        15.8076308961        4.4115768961        1.4158958485
  H        14.0374847054        5.3113690014        2.6569774173
  C        11.7983567949        6.4796018550       -2.5040475597
  C        11.2207401879        5.2841327787       -2.9121623074
  C        11.4148130027        4.7541482875       -4.2351648250
  C        12.1444673876        5.5860523069       -5.1275131841
  C        12.7108900556        6.7742548133       -4.7067814784
  C        12.6009627861        7.2317931215       -3.4159539915
  H        13.1425091082        8.1906630410       -3.0769029660
  H        13.2890906205        7.3064493125       -5.4377371061
  H        12.3630030724        5.1841678839       -6.1215405759
  H        10.9223006687        3.8055672989       -4.4732711949
  H        10.5826904827        4.7443687902       -2.2089204550
