140

  C         5.4881746625       -0.3649614815       16.1019378862
  C         6.5408351575        0.2993637149       16.8097284344
  C         7.6544232153        0.8914518921       16.1290505690
  C         8.5736239789        1.7340358538       16.8576131053
  C         9.5218854961        2.3765324209       16.1764434462
  C         6.4053261224        0.6879948095       18.2648319387
  C         5.4850813055        1.6821386009       18.5609117277
  C         5.1997171062        2.2306246292       19.8318961761
  C         5.9830672196        1.8117072760       20.8980636012
  C         7.0213304315        0.8954043019       20.5438003781
  C         7.2296044126        0.2941569508       19.3078301757
  H         8.3180507576        1.9013713278       17.9000047782
  H        10.0890479394        3.1948071019       16.6487649704
  H         4.9145061929        2.1362677611       17.7688222487
  H         4.3669855207        2.8839450663       19.9013692607
  H         5.9597643707        2.0783565654       21.9263748828
  H         7.5357962084        0.4044764049       21.3371500955
  H         7.8569368481       -0.6024843999       19.1685305148
  C         5.5008145672       -0.2341123846       14.5890859149
  C         4.4408617231       -0.7756630810       13.8240123265
  C         3.3146976547       -1.3815774007       14.4320953679
  C         3.2927422706       -1.4763860002       15.8601831737
  C         4.3682740600       -1.0291692133       16.6595597490
  C         7.7803493199        0.8130825904       14.6822497658
  C         6.6646617885        0.3543009942       13.9700052407
  C         6.7450518187        0.8077135893       12.5371971640
  C         5.9676273673        1.8845464634       12.1132054545
  C         6.1184917458        2.3558127009       10.7784236874
  C         6.9964246636        1.8483053710        9.8932246477
  C         7.8321312322        0.7584680203       10.2938660575
  C         7.6968626716        0.2816960247       11.6060102510
  H         8.2785680959       -0.5430652692       12.0158525393
  H         8.5963246730        0.3148657634        9.6260309516
  H         7.1626103971        2.1853162051        8.8643739553
  H         5.6462580163        3.2938600569       10.5056921186
  H         5.3027460694        2.3385549158       12.8567016878
  C         8.9718903406        1.3272666007       14.0917232681
  C         9.7740138020        2.1489534950       14.8299208947
  H        10.4907381262        2.8206017958       14.3591002496
  H         9.1755640162        1.1865610845       13.0142952993
  C         4.4232339251       -1.4067406503       18.0798782549
  C         5.3108290800       -2.4183488846       18.6084939082
  C         5.3039524715       -2.7528718231       19.9442274295
  C         4.4939625023       -2.0401812176       20.8264791014
  C         3.5062312427       -1.1467385160       20.3434710013
  C         3.5016060952       -0.8484349848       18.9994755349
  H         2.7448292280       -0.1988546454       18.5886838081
  H         2.7617862198       -0.7325852251       21.0055923274
  H         4.5727650456       -2.2804952424       21.9142423799
  H         5.9670478020       -3.4810564144       20.3773135581
  H         5.9024967153       -2.8971566869       17.8167208566
  C         2.1806800792       -2.2593474560       16.3867793851
  C         1.2664196783       -2.8856406184       15.6083233714
  C         1.4139348601       -3.0137118370       14.1950330346
  C         2.3652085108       -2.2181607960       13.6111843758
  H         2.4653136833       -2.1429671402       12.5416642303
  H         0.8520838137       -3.6895218858       13.5613764644
  H         0.5675635273       -3.4620357289       16.1787202299
  H         2.0536171568       -2.3052218979       17.5137530721
  C         4.5610004363       -1.0813162230       12.3235530243
  C         5.5323214499       -2.0416167920       12.0876412415
  C         5.7754616941       -2.5448477424       10.7921690021
  C         4.8232389226       -2.2123872373        9.8165182897
  C         3.7954983327       -1.2457680176       10.0601663250
  C         3.6557614415       -0.7003640649       11.3450689676
  H         2.8257654170       -0.0312760960       11.3370417700
  H         3.2254946058       -0.9172767717        9.2024945036
  H         4.7015855311       -2.7231204228        8.9262515258
  H         6.5867157495       -3.2754165582       10.5770296519
  H         6.1291757209       -2.3684916500       12.9645404518
  C         2.0349864570        6.7613158189       16.0748643939
  C         0.8828531333        7.3846964045       16.6770078099
  C        -0.1968889829        7.8504627946       16.0024003347
  C        -1.2833202511        8.4736178342       16.6144062292
  C        -2.3735981222        9.0208611592       15.9555031507
  C         0.9555156092        7.8765808129       18.1317567396
  C         1.8050868987        8.9971802635       18.4878993260
  C         1.8113551591        9.4959773471       19.7605989444
  C         1.0861545960        8.8943934286       20.8331643877
  C         0.2988044553        7.7727866310       20.4751735132
  C         0.2727670068        7.2767158872       19.1896384536
  H        -1.4276116945        8.5509800206       17.6555810268
  H        -3.2875883971        9.3515201823       16.5002151870
  H         2.3465116865        9.3904155883       17.6599607697
  H         2.4264174170       10.3978918220       19.9019321581
  H         1.0547783393        9.3110916467       21.8423506963
  H        -0.3718056008        7.3307340376       21.2131079781
  H        -0.4417917431        6.4059340971       19.0296449221
  C         2.1137671999        6.8032383619       14.6021961594
  C         3.1778790812        6.1522988270       13.9648200742
  C         4.1968314109        5.5551072345       14.7512552540
  C         4.0676344471        5.3718593473       16.1937394164
  C         2.9395504623        6.0145229900       16.8317750364
  C        -0.1557717547        7.7432459639       14.6043405369
  C         1.0218607393        7.3560827084       13.9718144545
  C         1.0723192464        7.7739431939       12.5089331064
  C         1.7271748296        8.9958479111       12.2156978489
  C         1.4985501837        9.5793718545       10.9748775227
  C         0.6716044275        8.9723090792        9.9405948677
  C         0.1230136157        7.7055655045       10.2714672751
  C         0.3708552948        7.1192404516       11.5031082025
  H        -0.0591251325        6.1084220696       11.7134316216
  H        -0.5354818473        7.2254081146        9.5959878193
  H         0.4626677204        9.4198975780        8.9598996316
  H         1.9567117954       10.5150212084       10.7752063453
  H         2.4856338335        9.4481534059       12.8799905219
  C        -1.1647856614        8.4688061214       13.8577223216
  C        -2.2100326042        9.1185370139       14.5240815542
  H        -2.8587231769        9.7100491078       13.8558048721
  H        -0.9225687423        8.6041073433       12.8144921924
  C         2.8116231333        5.7253377520       18.3209952752
  C         1.9605102894        4.7162847073       18.6946960164
  C         1.8388471313        4.2545534248       20.0246336292
  C         2.5563334446        4.8219618917       21.0319349371
  C         3.4653498462        5.8479862266       20.6502609656
  C         3.6224857120        6.3051384819       19.3327877677
  H         4.3223146931        7.1328688721       19.0542866435
  H         4.0067787431        6.3859398202       21.4653670187
  H         2.5998619337        4.4410499431       22.0651652762
  H         1.1110130719        3.4540653171       20.1754988762
  H         1.4580598392        4.1501463938       17.9096958302
  C         5.1273064507        4.6692750092       16.9011783814
  C         6.2864533041        4.3394421920       16.3287907336
  C         6.5319892887        4.7156642779       14.9577315544
  C         5.4924218073        5.3006710563       14.2629077374
  H         5.6820212591        5.4723320796       13.1717511456
  H         7.5345031746        4.5372159558       14.5136962387
  H         7.0008529747        3.7663253626       16.8457448052
  H         5.0621885406        4.5609387685       18.0396181792
  C         3.1984839089        5.9225422398       12.4716078858
  C         2.4040529034        4.8648252654       11.8613426342
  C         2.5660930524        4.5794808714       10.5290469288
  C         3.5205742114        5.1892633067        9.7791479109
  C         4.2441664146        6.3001194626       10.2567048664
  C         4.0278136795        6.6373643819       11.5995270536
  H         4.6714554445        7.4418588263       11.9739589041
  H         5.0731296967        6.7681326945        9.7172970031
  H         3.7191460719        4.8069198955        8.7878016298
  H         2.0134583649        3.7152272700       10.2135230225
  H         1.7151002408        4.2624887374       12.3872172050
