140

  C         0.7888421141        1.0341859851       15.1055897869
  C         1.7986631816        1.8174941521       15.7256304449
  C         2.8594867862        2.3981259889       14.9633236766
  C         3.9426767330        3.0151283955       15.6454778802
  C         4.9560692912        3.6511068157       14.9225973329
  C         1.6316063561        2.1950731474       17.1518696485
  C         0.9694067909        3.3150390656       17.5543372191
  C         1.0835009759        3.8040315999       18.8559257463
  C         1.8566702921        3.2458604868       19.8491460585
  C         2.6628871964        2.1324653650       19.4986313304
  C         2.5450259066        1.6382020408       18.1878661044
  H         3.9321389270        3.1434887556       16.7403991639
  H         5.8340142066        4.1601554214       15.3960624901
  H         0.2438248634        3.7750554120       16.8723584488
  H         0.3769597625        4.5684394619       19.0952474254
  H         1.7746784871        3.6737603254       20.8466890452
  H         3.2253722198        1.6332485491       20.2672210093
  H         3.2259988235        0.8709252789       17.8470606946
  C         0.7799317077        0.9687361477       13.5850984043
  C        -0.2467159928        0.3183771784       12.7800094970
  C        -1.3554398596       -0.2458036053       13.5688144930
  C        -1.3243113919       -0.1763175898       15.0685122940
  C        -0.2573985322        0.3276652439       15.7423003397
  C         2.9088824532        2.2732864621       13.5455586379
  C         1.8883243966        1.6081546274       12.8714594383
  C         1.7561912399        1.9314226950       11.3870601297
  C         0.8707031908        2.7755447839       10.8299010842
  C         0.9156613901        3.1139403355        9.4483156132
  C         1.9494791935        2.6480739574        8.6405186711
  C         2.9085939186        1.7382160117        9.2024460250
  C         2.8046688887        1.3583956910       10.6046548694
  H         3.4720124146        0.6599174477       11.1042119991
  H         3.7559588829        1.4437542018        8.6112445228
  H         1.9146798748        2.8677818425        7.5799697947
  H         0.0783444613        3.7029656820        9.0723348669
  H         0.1579365447        3.1729480957       11.5096220591
  C         4.0340793800        2.9720806889       12.8795889273
  C         4.9969347285        3.5991747650       13.5279986329
  H         5.8614382285        4.0499057600       13.0671236899
  H         3.8966762924        3.0806203808       11.8133308139
  C        -0.1876158519       -0.0372767790       17.2534195497
  C         0.6705759306       -1.0986655832       17.5851160839
  C         0.8719295617       -1.4577771980       18.8976685743
  C         0.1016854216       -0.9354472812       19.9099481342
  C        -0.8246526841        0.0658033891       19.6011336329
  C        -0.9188916280        0.6016112165       18.2816310817
  H        -1.4621836840        1.4513462753       18.0732185464
  H        -1.5180920252        0.4573946293       20.4077235391
  H         0.0917295951       -1.3112067565       20.9542991330
  H         1.5663542105       -2.1752244641       19.1831397709
  H         1.1268054076       -1.7379273322       16.8344292049
  C        -2.4418850892       -0.8329505082       15.7195956374
  C        -3.4522935346       -1.4892199807       15.0408907518
  C        -3.5228141938       -1.4799244368       13.6191585533
  C        -2.4829035699       -0.8381461057       12.9202483482
  H        -2.4775637431       -0.9368567244       11.8464718356
  H        -4.2203576210       -2.1156683924       13.0971333476
  H        -4.1351639822       -2.1547804602       15.6161025460
  H        -2.5411017469       -0.7671050889       16.8319971295
  C        -0.1646770421       -0.0713184801       11.3470394904
  C         0.8369601204       -0.9278126147       10.9424804570
  C         0.9812576487       -1.3643201545        9.6514412967
  C         0.1393477477       -0.7473688174        8.7117156592
  C        -0.8994765895        0.0978669869        9.0884397538
  C        -1.0719000471        0.4166563278       10.4111836961
  H        -1.8264065120        1.0695506555       10.7314180993
  H        -1.5766009687        0.3649888538        8.2806408901
  H         0.1893224410       -1.0069866055        7.6695115408
  H         1.7819483819       -2.1074371661        9.3240815642
  H         1.4986725143       -1.2963235726       11.6923462700
  C        -2.7815567577        8.0218251220       14.9688077983
  C        -3.7589765722        8.8465149901       15.5630130458
  C        -4.8095772667        9.4244715106       14.8083337923
  C        -5.7757599302       10.2249453065       15.4880884397
  C        -6.8083845791       10.8068844019       14.8454221937
  C        -3.6178405777        9.3638586067       16.9128071030
  C        -2.6913270567       10.3769429450       17.1804241877
  C        -2.5481642130       10.8359933921       18.4958754833
  C        -3.3244391818       10.3663797090       19.5253625346
  C        -4.2892665084        9.3847516644       19.2750692502
  C        -4.5101257009        8.9124364867       17.9930239924
  H        -5.6020724761       10.3928683733       16.5175300101
  H        -7.5315436224       11.4492770969       15.3857144888
  H        -1.9946854936       10.6793811223       16.4390452801
  H        -1.7367465813       11.5300403984       18.7154366643
  H        -3.2193961100       10.5984245190       20.5665726142
  H        -4.9523356284        8.9733664927       20.0192644203
  H        -5.3218059725        8.1517627410       17.8164438913
  C        -2.7979903871        7.9609897245       13.4834773609
  C        -1.7708456892        7.2939460993       12.8525018481
  C        -0.6212295080        6.7338288693       13.5673690159
  C        -0.5759827202        6.8795970988       14.9667131625
  C        -1.7074485916        7.3577158898       15.6393565602
  C        -4.9003272301        9.3512402350       13.3363254227
  C        -3.7806263382        8.7278410460       12.7687673460
  C        -3.6030216926        9.0488404921       11.2672595623
  C        -2.6551793244       10.0930581691       10.9069932610
  C        -2.7464073837       10.7406660247        9.6587204732
  C        -3.7705224670       10.4241451482        8.7315332929
  C        -4.5322099481        9.3519150091        9.1161000577
  C        -4.6104762384        8.6986936248       10.3279511655
  H        -5.2135467778        7.8060886596       10.4774691642
  H        -5.3137966345        8.9588101560        8.3837909256
  H        -3.8938486948       10.9853595543        7.7948925788
  H        -1.9842324114       11.5137618978        9.4384081433
  H        -1.8671612375       10.3873099972       11.5630446693
  C        -6.0022396511        9.9304503471       12.7005536154
  C        -6.9938834686       10.5818280439       13.4839159450
  H        -7.8697843222       11.0583293271       12.9813316093
  H        -6.1765057663        9.9210159623       11.6351272768
  C        -1.8392750501        7.0392793060       17.1456819868
  C        -2.7215018850        5.9391690116       17.4278957385
  C        -2.8041861795        5.4830483886       18.7720637518
  C        -2.0945644868        6.1318027952       19.8131259177
  C        -1.1440731251        7.1399670404       19.5252268066
  C        -1.0738123001        7.6393381303       18.1946575703
  H        -0.3629686249        8.3401253748       17.8963903409
  H        -0.4299853101        7.4200117515       20.3818137014
  H        -2.1602366898        5.7032096960       20.8278088084
  H        -3.5023644649        4.6319093509       18.9355209282
  H        -3.3715580455        5.5435192995       16.6454869219
  C         0.5620594740        6.2905091647       15.6769504580
  C         1.5827210202        5.6001781534       14.9664739061
  C         1.4896412521        5.3884338603       13.5562344581
  C         0.4153490763        5.8915694112       12.8222495123
  H         0.4078153598        5.6713464325       11.7674632575
  H         2.2455951036        4.8856488734       12.9375153079
  H         2.4654852656        5.2134858347       15.4781239046
  H         0.6214264094        6.4553247438       16.7687542726
  C        -1.8356739116        6.9073694368       11.3994002404
  C        -2.6486396626        5.8674160810       10.8385207626
  C        -2.5631459843        5.4843808421        9.5086740764
  C        -1.6838043856        6.1709097982        8.7057708123
  C        -0.8574788167        7.1715081458        9.1396238019
  C        -0.9239125152        7.5168447124       10.4987572873
  H        -0.3483686646        8.3607244663       10.8592938176
  H        -0.0311853021        7.6730356924        8.5615786120
  H        -1.7069837543        6.0034358796        7.6212931346
  H        -3.3675941395        4.9684668188        9.0317229170
  H        -3.4920432684        5.6068790553       11.4570018060
