140

  C        15.7326679130       -1.4134356792        0.3204028800
  C        16.6947614759       -0.6811809255        0.9669804627
  C        17.7433050071       -0.0017491900        0.2484697539
  C        18.9214221771        0.5252980927        0.9010349970
  C        19.9828004263        1.0451441407        0.1988448739
  C        16.5889046138       -0.3434479870        2.4967529328
  C        15.9555277070        0.7977649608        2.9025532829
  C        15.8367348786        1.0855878883        4.3098908682
  C        16.6207350873        0.4595996918        5.2203719560
  C        17.4965601273       -0.5098479427        4.8050654421
  C        17.4254952852       -0.9928584094        3.4762434177
  H        18.9294285323        0.4192310663        1.9678705505
  H        20.8527479818        1.4016807932        0.7505378738
  H        15.3589040170        1.3879192780        2.2169293703
  H        15.0660943031        1.8089762249        4.5586098965
  H        16.6208959135        0.6919432193        6.2621481832
  H        18.1417882487       -1.0187636013        5.5591021001
  H        17.9983460250       -1.8964916184        3.2339283135
  C        15.7809501519       -1.4915111617       -1.1964264771
  C        14.7396799041       -2.2011919136       -1.8204950568
  C        13.5772451119       -2.6425233930       -1.1104391053
  C        13.5479840442       -2.6708360616        0.2976512361
  C        14.6813740047       -2.1319711242        0.9843341965
  C        17.7787949611        0.0554044205       -1.1823891366
  C        16.7787738918       -0.6646304245       -1.8346767089
  C        16.8235759341       -0.4334576839       -3.2791343568
  C        16.0848140615        0.5762418187       -3.8545995488
  C        16.2694130482        0.8942649393       -5.1602552232
  C        17.1193082069        0.2262504928       -6.0089726458
  C        17.8660839278       -0.8718547378       -5.4985928378
  C        17.6867413865       -1.1444702195       -4.1472355665
  H        18.2079048779       -1.9761972831       -3.6952683449
  H        18.4471372749       -1.4924251472       -6.1599033310
  H        17.1302161272        0.4752890844       -7.0909101092
  H        15.5877438877        1.6724181880       -5.4869619781
  H        15.4333873975        1.2191159801       -3.3042148958
  C        18.8285712085        0.7327980504       -1.8727757431
  C        19.9694703313        1.1792608162       -1.1687002554
  H        20.7769046844        1.7689496878       -1.6828800983
  H        18.7188993046        0.8391981808       -2.9106059516
  C        14.7452888768       -2.4926718117        2.3784327938
  C        15.6213586253       -3.5521343567        2.7215958992
  C        15.8828124125       -3.9876267286        4.0358747816
  C        15.2001006785       -3.3769578152        5.0595808748
  C        14.2592856457       -2.3972435780        4.7213602692
  C        13.9773468801       -1.9474534483        3.4523081994
  H        13.3675925653       -1.0723302786        3.3689923414
  H        13.6888365162       -1.9521007905        5.4932066910
  H        15.3026590507       -3.7402783215        6.0656815185
  H        16.6361244589       -4.7314215760        4.2341218005
  H        16.0598726973       -4.1807430109        2.0603884049
  C        12.4353112255       -3.2326335900        1.0089106639
  C        11.4360990579       -3.8450297022        0.2809976627
  C        11.4652555134       -3.9057108980       -1.1432305748
  C        12.4953036326       -3.2831752266       -1.8245480597
  H        12.4939516276       -3.2449266252       -2.9181706893
  H        10.6283527921       -4.3555318947       -1.7605192200
  H        10.6370147379       -4.3126616183        0.8563599152
  H        12.5654273895       -3.3110507720        2.1220103934
  C        14.7800626775       -2.6239765208       -3.2297460250
  C        15.5072812544       -3.7332288568       -3.6061283164
  C        15.4990688563       -4.2750763658       -4.9354275356
  C        14.6094269625       -3.6304884037       -5.9110993971
  C        13.8787864374       -2.4754138202       -5.4793526955
  C        13.9953620951       -1.9690330094       -4.1863167672
  H        13.4989906469       -1.0593598823       -3.9305043283
  H        13.3249078763       -1.8775191988       -6.1967055889
  H        14.5292542638       -3.9373590955       -6.9601539539
  H        16.0655761756       -5.1193916959       -5.1960918463
  H        16.0293081582       -4.2434427053       -2.8345486339
  C        12.2072644677        5.6559535737        0.2362265024
  C        11.2012379938        6.4156568025        0.9635474269
  C        10.0926054516        6.9948162219        0.3665025620
  C         9.0233271115        7.6908084816        1.1563190297
  C         8.0545367875        8.4042898136        0.5271501794
  C        11.2380296634        6.6880675826        2.4504153601
  C        11.8834907472        7.8967998457        2.8520898677
  C        11.9346463489        8.2544707402        4.2408295573
  C        11.1850822173        7.4383412909        5.0738855122
  C        10.4545934151        6.3666293003        4.6853922843
  C        10.4704052387        5.9458306624        3.3787988428
  H         9.1052925182        7.6699208991        2.2522594859
  H         7.2196547659        8.9091299335        1.0350394112
  H        12.3503071579        8.4780336450        2.1234457864
  H        12.5753047245        9.0475155322        4.5279912865
  H        10.9655609351        7.6276282256        6.1462374547
  H         9.9341598651        5.8544135592        5.4656095492
  H         9.8822544654        5.0909948955        3.1838518574
  C        12.1214132572        5.6459480483       -1.2386233883
  C        13.1824806236        5.0161364366       -1.9510596674
  C        14.2951541838        4.4620003149       -1.2346591837
  C        14.3063311503        4.3571999418        0.1928588051
  C        13.2225569439        4.9415427802        0.9289508981
  C        10.0124223520        6.9742683376       -1.0705326576
  C        10.9923292484        6.3658062436       -1.8624850983
  C        11.1680777189        6.7303646259       -3.3260110265
  C        11.9961434275        7.9090539989       -3.6019140286
  C        12.2131248279        8.3377253414       -4.9146134057
  C        11.5648808620        7.6618694670       -5.9153614927
  C        10.7322077327        6.5528883510       -5.6812565063
  C        10.4889610246        6.0472670754       -4.3784322039
  H         9.7741432050        5.2380659725       -4.2950090599
  H        10.2992936909        6.0266628668       -6.4888446967
  H        11.5928915629        8.0606578246       -6.9867816664
  H        12.7688197863        9.2227760114       -5.1088972663
  H        12.3792076527        8.4306088553       -2.6971530746
  C         8.9808556980        7.7513046127       -1.6366293397
  C         7.9927548858        8.4281691334       -0.8965765992
  H         7.2895256164        9.0026051845       -1.4511497605
  H         8.8581611475        7.7852155213       -2.7232356411
  C        13.1632586274        4.6286801122        2.4194067186
  C        12.3949318038        3.5468235164        2.9352370357
  C        12.4597157094        3.1078482017        4.2347233488
  C        13.3108165490        3.8276649051        5.1730206224
  C        14.1246133923        4.8264676121        4.6926966800
  C        14.0009011000        5.2789967671        3.3698420144
  H        14.5809457422        6.1177922123        2.9549342625
  H        14.9299593467        5.2899953882        5.2679567767
  H        13.3573206003        3.4474604889        6.1756981523
  H        11.7824447510        2.3202253793        4.5304212004
  H        11.6915823482        2.9536875945        2.3294086588
  C        15.4400587078        3.6705134684        0.7966847809
  C        16.5714558336        3.3125660330        0.1127725003
  C        16.5957193350        3.5241588778       -1.2914328734
  C        15.4957565922        4.0589741388       -1.9475686847
  H        15.5436628869        4.1200068275       -2.9948568088
  H        17.4692613319        3.2843918244       -1.8589408829
  H        17.4489395457        2.9334387140        0.6030901502
  H        15.4964422323        3.4181164307        1.8459026389
  C        13.2291520195        4.6432691691       -3.3886787541
  C        12.5410893599        3.5642018579       -3.8651147127
  C        12.5752207666        3.1643653985       -5.2188220981
  C        13.3278100609        3.9083459100       -6.1317297128
  C        14.0508664537        5.0479861713       -5.6260425452
  C        14.0187201468        5.3978824240       -4.3104480935
  H        14.5839066461        6.2794073163       -4.0184452009
  H        14.8221559097        5.4632457756       -6.3237719075
  H        13.3498704105        3.6745976189       -7.2391737929
  H        12.0247123403        2.2583355449       -5.5070142047
  H        11.7619342035        2.9551242166       -3.2024596191
