140

  C        16.3546877954       -0.4393178610        2.6806839521
  C        17.4147570712        0.2172916150        3.4591955802
  C        18.5910364621        0.6603571366        2.7339767857
  C        19.7462413153        1.2651452485        3.3133746278
  C        20.7727098926        1.9206857700        2.6425063671
  C        17.4253782176        0.6560984165        4.9091649653
  C        16.6600736308        1.7387673946        5.3803944255
  C        16.6790113085        2.0177021701        6.7621899166
  C        17.3493435780        1.2078853527        7.6482874735
  C        18.1087102812        0.1382668017        7.1883983423
  C        18.2131234387       -0.1038048787        5.8203050893
  H        19.7042441176        1.3443887627        4.4125250153
  H        21.5510694892        2.5145748551        3.1104536656
  H        16.1384043795        2.2876781417        4.5975205008
  H        16.2196749745        2.8634558744        7.1242693671
  H        17.2292049419        1.4017463170        8.7135798508
  H        18.7449902596       -0.3324362989        7.9443168549
  H        18.8960673563       -0.8818217180        5.4259461952
  C        16.4088972700       -0.4186895098        1.2178954363
  C        15.3994572620       -1.1114556008        0.5411642790
  C        14.3555642580       -1.8200196608        1.1221822530
  C        14.3500244168       -1.9314498972        2.6253855843
  C        15.3147168081       -1.1906113225        3.3447486544
  C        18.6379375248        0.7198503618        1.2362405727
  C        17.5754436356        0.1206442888        0.5484859898
  C        17.6579114921        0.4690703069       -0.9069836506
  C        16.9820829076        1.6294744851       -1.3437850680
  C        17.1079717929        2.0760962784       -2.6333852493
  C        17.9060112287        1.2884650043       -3.5195244902
  C        18.5042821602        0.1254561968       -3.1200691971
  C        18.3291448599       -0.3310142895       -1.8286538154
  H        18.8710251585       -1.2861887269       -1.6828477674
  H        18.8874807869       -0.6103197513       -3.7650677227
  H        17.9795073444        1.5292471980       -4.5702158144
  H        16.5668772898        2.8851812129       -3.1050486771
  H        16.3982369592        2.1586534978       -0.5575307040
  C        19.7902940027        1.2635721349        0.5446989382
  C        20.8031528124        1.8400036580        1.2452635905
  H        21.6901613426        2.2316732028        0.7473265826
  H        19.7876764830        1.2198861690       -0.5681187644
  C        15.4727422390       -1.6495574335        4.7763211530
  C        16.2467457782       -2.7827196548        5.1789694139
  C        16.2137469128       -3.2778066744        6.4927488027
  C        15.3894482656       -2.7542859031        7.4709516546
  C        14.5918429918       -1.5775114755        7.1346748132
  C        14.7357290263       -1.0896292326        5.8227778770
  H        14.2086321345       -0.1313972272        5.6098968676
  H        13.8978726847       -1.0581504718        7.8098093021
  H        15.1735206298       -3.2042225895        8.5019908177
  H        16.8780520617       -4.1253544770        6.7509642420
  H        17.0885930743       -3.1378773549        4.4891475501
  C        13.4424174684       -2.7864097148        3.2889105762
  C        12.4873845275       -3.4927324812        2.5684068645
  C        12.5008773037       -3.4120355664        1.1549784525
  C        13.4126502258       -2.6076653901        0.4300564562
  H        13.4450826280       -2.7796496844       -0.6133320403
  H        11.7378894976       -3.9968361859        0.6605187644
  H        11.8327230780       -4.1649855934        3.1084374309
  H        13.4403200463       -2.8073849773        4.3755062858
  C        15.4916437774       -1.4015369534       -0.9047696763
  C        16.3490780350       -2.3954072296       -1.3022859425
  C        16.4354507356       -2.8815405340       -2.6179327425
  C        15.5505203542       -2.4181952003       -3.5660414942
  C        14.7088135014       -1.3832843263       -3.2044673970
  C        14.7078836358       -0.8144527370       -1.9146453710
  H        14.0810391244        0.0131931297       -1.6565024341
  H        13.8345385148       -1.1575621199       -3.8731367574
  H        15.4780487795       -2.8645510056       -4.6120719957
  H        17.1085244095       -3.7038591113       -2.8857759463
  H        16.9809147904       -2.9828975966       -0.6011259763
  C        13.1350685170        6.6792370998        2.8255557997
  C        12.0717729535        7.2259685131        3.5640200515
  C        10.9337777748        7.7758413164        2.8703595705
  C         9.9375442280        8.4536944968        3.5611606096
  C         8.9198648890        9.1278105501        2.8659109772
  C        12.1136006401        7.5694718994        5.0272087390
  C        12.7915009275        8.7274577947        5.4415964868
  C        12.7704345037        9.1980764319        6.7671899042
  C        11.8749952347        8.6265691580        7.6562090348
  C        11.1434285648        7.4721924702        7.2605617465
  C        11.2374788163        6.9866449387        5.9583297727
  H         9.9396977847        8.4267855352        4.6267015744
  H         8.2974215269        9.8446239525        3.4092199105
  H        13.4086506445        9.2233026596        4.7088825371
  H        13.4455366950       10.0593596912        7.0572278193
  H        11.5803933370        9.0203510473        8.6399385007
  H        10.3877717682        7.0594663224        7.9433664815
  H        10.6122519532        6.1519232030        5.6492405023
  C        13.1445086659        6.7190204580        1.2970032561
  C        14.2189033422        5.9669850747        0.6874676441
  C        15.3288844332        5.5152362122        1.3292513618
  C        15.2544871690        5.4111434935        2.7959327254
  C        14.2340680971        6.0080919975        3.4457584508
  C        10.9520041987        7.8635719885        1.4178153531
  C        12.0472497998        7.3913325722        0.6764738711
  C        12.1565417926        7.7072629511       -0.7757753403
  C        13.1287414351        8.6318070372       -1.1861830457
  C        13.1299192933        9.0344882650       -2.5241947307
  C        12.1344205939        8.5339918971       -3.3845815265
  C        11.3936039730        7.4243607312       -3.0723675140
  C        11.3237972690        7.0336468858       -1.7392013589
  H        10.5237669167        6.3107940715       -1.3933822660
  H        10.8258039530        6.9600157297       -3.8492488232
  H        12.0001155055        8.9151431932       -4.4182098536
  H        13.7846073728        9.7902515877       -2.9139911943
  H        13.6654983057        9.2111009253       -0.4172400101
  C         9.8738644338        8.4688381318        0.7630494137
  C         8.8909445010        9.1177322305        1.4442102784
  H         8.1041116703        9.6182799999        0.8566780292
  H         9.7481564923        8.3395309845       -0.3175078369
  C        14.1512005524        5.7591986053        4.9370667311
  C        13.4343085279        4.6547591122        5.3410907025
  C        13.4463568957        4.2927583897        6.6781074061
  C        14.1978743571        5.0698224255        7.5552075881
  C        14.9065059775        6.2234104271        7.2093767330
  C        14.9153912930        6.5581167771        5.8261064435
  H        15.5606576179        7.3156715863        5.4074380678
  H        15.4508923922        6.7878735903        7.9629312829
  H        14.0797751164        4.8185447080        8.6273310099
  H        12.9106941592        3.4709743321        7.1082664906
  H        12.8871680530        4.1659107672        4.5753354668
  C        16.2984819309        4.6502198937        3.4555711189
  C        17.3239148642        4.0261741322        2.8302223200
  C        17.3946534158        4.1306244630        1.3847377565
  C        16.4268168496        4.8625416741        0.7315354887
  H        16.5001955955        4.8338957965       -0.3548961376
  H        18.2877916433        3.7447351436        0.8779361005
  H        18.0481764121        3.4359685496        3.3530522713
  H        16.1944653935        4.6162204031        4.5559253731
  C        14.1274867595        5.5801455512       -0.7986869208
  C        13.2956436233        4.4968772635       -1.2622065652
  C        13.3994709344        3.9725277310       -2.5547165690
  C        14.2462640471        4.6435499983       -3.5049243551
  C        15.0377983987        5.6788497077       -3.0427975174
  C        14.9880349877        6.1922624107       -1.7140371849
  H        15.6496675850        6.9671742080       -1.4766337523
  H        15.7253819358        6.2649075013       -3.6704853558
  H        14.3325353374        4.4190845535       -4.5293595493
  H        12.6672244078        3.2500120699       -3.0106476991
  H        12.6804698714        3.9415779104       -0.6003496039
