140

  C        16.6432705857       -0.4487301650        2.8187245528
  C        17.7558933257        0.1986973387        3.3969378406
  C        18.7347769832        0.8202174425        2.5351288631
  C        19.9636065857        1.3473856232        3.1074186053
  C        20.9584278227        1.9009202281        2.2944743896
  C        17.7480756052        0.5109114566        4.9149358197
  C        16.9813520358        1.6599952688        5.2051041029
  C        16.7639996475        1.9670686258        6.5882646160
  C        17.3664858299        1.2406862141        7.5988717831
  C        18.3690426885        0.2927784271        7.2500770077
  C        18.4994708171       -0.0632050737        5.9215575403
  H        20.1508671322        1.2402657079        4.1554111038
  H        21.8650903002        2.2087208229        2.7774227501
  H        16.4772628041        2.2050848174        4.4817731081
  H        16.0917625148        2.8190562188        6.7944534468
  H        17.1891800844        1.5716320966        8.6138396269
  H        18.9855575769       -0.2153328996        7.9866386577
  H        19.1708107884       -0.8216446418        5.6619549582
  C        16.4779493032       -0.3793487296        1.3039880286
  C        15.3758571268       -1.0197915260        0.7198214701
  C        14.3317301182       -1.6578882782        1.4766248284
  C        14.4530201734       -1.6956162697        2.9318600607
  C        15.7330288225       -1.2495988793        3.5654969956
  C        18.6076197918        0.9265823741        1.1443675982
  C        17.4372645392        0.3775902900        0.5073220624
  C        17.2606824768        0.5554363624       -0.9682935851
  C        16.3906731632        1.6255069958       -1.3488906824
  C        16.3462830120        2.0288099340       -2.7192181474
  C        17.2463180897        1.4248225974       -3.6156158330
  C        18.0882769975        0.3518337142       -3.2107876621
  C        18.0989020281       -0.0612039345       -1.9318583858
  H        18.7167380838       -0.8005581812       -1.5068352334
  H        18.7949738030       -0.1217331249       -3.8938126127
  H        17.2475084868        1.7805274191       -4.6766501629
  H        15.6573760820        2.8360232267       -3.0505352825
  H        15.7624623237        1.9760933799       -0.5169044605
  C        19.5649089952        1.6482586763        0.3597726909
  C        20.7979488294        1.9696141630        0.8683784624
  H        21.6084244496        2.4044099090        0.2228017355
  H        19.3163213779        1.7176937324       -0.7364033756
  C        15.8523782285       -1.5418996121        5.0549365634
  C        16.6455747697       -2.5999724841        5.5675935786
  C        16.4938800190       -2.9825998294        6.9098419561
  C        15.6193021155       -2.3504951891        7.8423749305
  C        14.8423379426       -1.2900316375        7.3074013986
  C        14.9233498592       -0.8952853277        5.9652009946
  H        14.3227588098       -0.1348299132        5.5967832494
  H        14.0765593287       -0.7438294091        7.9254327138
  H        15.6469292041       -2.5363463019        8.8421027407
  H        17.1941846503       -3.7311723603        7.3027331598
  H        17.3261816039       -3.2758345856        4.9893620455
  C        13.4425904239       -2.3491029915        3.6152488938
  C        12.3884243340       -2.9298360973        2.9914167708
  C        12.2747925570       -2.9432008832        1.5429792227
  C        13.2461699082       -2.3462614787        0.8226700530
  H        13.0668886712       -2.3891157875       -0.2511231038
  H        11.4811650634       -3.5096382088        1.0182811489
  H        11.5967964528       -3.3682416716        3.6059954867
  H        13.6997408230       -2.4937572664        4.6602619758
  C        15.5069785723       -1.6361594574       -0.6371984858
  C        16.2376438821       -2.7599003998       -0.8495900012
  C        16.4087715111       -3.3523362819       -2.1363258266
  C        15.7232112566       -2.8553659873       -3.2094621365
  C        14.9125190083       -1.7263564668       -3.0034064539
  C        14.9036105630       -1.0855752314       -1.7569549578
  H        14.3727808880       -0.1335371768       -1.6026699254
  H        14.4143097364       -1.2698070971       -3.8967834004
  H        15.6139291705       -3.3602671864       -4.1506237994
  H        17.1248565753       -4.1665349125       -2.1437250622
  H        16.7322032055       -3.2922921475       -0.0264681864
  C        12.9001180002        6.8307597337        2.5319259823
  C        11.8705264280        7.5666801516        3.1896440803
  C        10.8020179718        8.1729739625        2.4357634455
  C         9.6741601263        8.7465905439        3.0521188186
  C         8.6901238859        9.3083441110        2.3322339980
  C        11.9422762544        7.9743236304        4.6601421924
  C        12.7186059518        9.0751251470        5.1359550046
  C        12.7106650109        9.4200818324        6.4842515330
  C        11.9358244553        8.7000975381        7.3843394169
  C        11.2091643206        7.5527107595        6.9614779135
  C        11.2486821424        7.2040843658        5.6100155313
  H         9.6512893616        8.8473651375        4.1522279575
  H         7.7820074921        9.7300612593        2.7693046211
  H        13.2895526757        9.7103779634        4.4221002455
  H        13.2854780810       10.2172435931        6.8110249401
  H        11.9764325873        8.9930466848        8.4469438208
  H        10.4911529465        7.1131423750        7.6373716378
  H        10.6200740509        6.3477381017        5.2023550250
  C        12.8623755596        6.7450384080        1.1021311378
  C        13.8488195344        5.9136713140        0.4478130417
  C        14.9276767209        5.3336281494        1.1892881471
  C        14.9470888604        5.3942642839        2.6407126178
  C        13.8610142156        6.1320321536        3.3112260011
  C        10.8805153368        8.1818845931        1.0362403791
  C        11.9206138166        7.5177287399        0.3691063134
  C        12.0554305842        7.8367720498       -1.1203823508
  C        12.8522352183        8.9486120631       -1.2821213018
  C        12.8453007531        9.6530852372       -2.4673445137
  C        12.1014971847        9.2329620487       -3.5176486758
  C        11.2182868428        8.1012866381       -3.3883412623
  C        11.2685939869        7.3498926940       -2.1912649738
  H        10.6946207865        6.4570326280       -1.9720818976
  H        10.5031731855        7.8617876812       -4.2220520026
  H        12.0021719357        9.7150733056       -4.5016803536
  H        13.4629972958       10.5822335559       -2.5319695976
  H        13.4816530367        9.3616231417       -0.5262924281
  C         9.8278180086        8.8268443493        0.2370527191
  C         8.7331005935        9.2662496486        0.8865288666
  H         7.9084216596        9.7469861633        0.3318858725
  H         9.8542088089        8.6940459561       -0.8459255343
  C        13.8329905362        5.9460434235        4.7781884327
  C        13.2732278328        4.7221668245        5.2828979022
  C        13.3574109553        4.3911803418        6.6298193764
  C        14.0934055876        5.2055870889        7.4688032011
  C        14.8229813105        6.2885096167        6.9836244126
  C        14.6279224430        6.6675977312        5.6575043804
  H        15.1348954890        7.5227990135        5.2608547145
  H        15.4517308646        6.9252727392        7.6380825057
  H        14.0272279531        4.9896745866        8.5216358465
  H        12.8931711202        3.5576322020        7.1017376899
  H        12.7810265537        3.9968684158        4.6615937736
  C        15.9094924022        4.6639641194        3.4322305166
  C        16.9464705302        4.0331443984        2.8166705310
  C        17.0428153071        4.1083384320        1.3811632305
  C        16.0165200587        4.5768140330        0.5600830506
  H        16.1131057105        4.5736317616       -0.5144538130
  H        17.7814793706        3.5336428899        0.8322371875
  H        17.6781863979        3.5424968821        3.3875889134
  H        15.6493906530        4.5655977582        4.4837642245
  C        13.7098289822        5.5852929937       -1.0042465287
  C        13.0269165277        4.4415928009       -1.5029348345
  C        13.1200205700        4.0264287476       -2.8114128615
  C        14.0472166273        4.6496984119       -3.6485086945
  C        14.8525064868        5.6719394630       -3.1421304284
  C        14.6359271414        6.2227708065       -1.8660276806
  H        15.1611513507        7.0839322653       -1.4027560840
  H        15.6312797609        6.1795571126       -3.6903882965
  H        14.3054411331        4.3165944255       -4.7040879700
  H        12.5554554468        3.2039653922       -3.1744545150
  H        12.3002391684        3.9437478474       -0.8980539632
