140

  C         3.2655069220        0.1071367467       14.7020914079
  C         4.1053423589        0.9575936445       15.4126939427
  C         5.1870663597        1.5094896304       14.6486266186
  C         6.1425091562        2.2789278806       15.3735054984
  C         7.1730717002        3.0288206589       14.7561816704
  C         3.9502469662        1.3367654648       16.8674858779
  C         2.9757021155        2.2400915686       17.2470928078
  C         2.8780289169        2.6754412672       18.6062851716
  C         3.9609776750        2.4286313213       19.5025377938
  C         5.0399785718        1.6520773337       19.0303211132
  C         4.9048810132        0.9078873033       17.8352365545
  H         6.0277995183        2.3581227378       16.4947990399
  H         7.8450437055        3.6590559657       15.3641871260
  H         2.2639899431        2.4375742124       16.4808750837
  H         2.0950116884        3.3212605494       18.9213234638
  H         3.9634096765        2.8180528305       20.5687595100
  H         5.9506145312        1.4947758964       19.6354005539
  H         5.7021300674        0.2970160480       17.4324165959
  C         3.2676908414        0.0646953016       13.2021546737
  C         2.1885904879       -0.5063838050       12.5298334921
  C         1.0999851812       -1.1226654529       13.2683416323
  C         1.1833072434       -1.2317175944       14.7253199798
  C         2.3277272081       -0.7426230927       15.3680245007
  C         5.3738527891        1.3072164673       13.3020659109
  C         4.3446872568        0.7536487568       12.5235500181
  C         4.3132897933        1.0313613660       11.0119504107
  C         3.5166496404        2.0090453144       10.4367028406
  C         3.6826488562        2.1771815079        9.0543441709
  C         4.6235106806        1.5220093207        8.2827101740
  C         5.4402655632        0.5024794842        8.8692458173
  C         5.2511822091        0.2943823609       10.1838871910
  H         5.9141524805       -0.4082694007       10.6560270013
  H         6.3847476294        0.2104000347        8.4152995616
  H         4.7018428448        1.8203967487        7.2691340260
  H         3.0961427419        2.9947538277        8.6356412764
  H         2.8372505338        2.7103400961       10.9472534034
  C         6.5159074400        2.0046580355       12.6347862756
  C         7.4015018994        2.7513661398       13.3715195322
  H         8.3271006951        3.1716923958       12.9573968944
  H         6.7062495243        1.8342035351       11.5409597338
  C         2.3803592798       -1.0777629801       16.8437990795
  C         3.2521180779       -2.0495506089       17.2643041063
  C         3.4113423264       -2.3854703597       18.6251186491
  C         2.4533454583       -1.8617002187       19.5208917784
  C         1.4097556695       -1.0475547285       19.0263606578
  C         1.4037759803       -0.6079256721       17.7212079098
  H         0.7999363882        0.2021421863       17.2948433389
  H         0.6884980780       -0.6944475528       19.8058394371
  H         2.4964361909       -2.1517947751       20.5980263644
  H         4.0992095417       -3.1505085392       18.8824329552
  H         3.8757903377       -2.5563739612       16.5601335374
  C         0.0636787723       -1.8827541383       15.3556864125
  C        -0.9615995315       -2.4365500711       14.6712619544
  C        -1.0400160244       -2.3405564776       13.2553265674
  C        -0.0739353316       -1.6348599175       12.5464262139
  H         0.0448664027       -1.7171653833       11.4737111894
  H        -1.8758872254       -2.9116096430       12.8115238033
  H        -1.8076546962       -2.9473902053       15.1284397925
  H        -0.0602776666       -1.9726330108       16.4316781131
  C         2.2128660127       -0.8971121089       10.9988960326
  C         2.6928498557       -2.1777338842       10.6711318230
  C         2.5599589794       -2.7712182000        9.3920655388
  C         1.7781459240       -2.1016510943        8.4620219465
  C         1.3218797240       -0.8085321144        8.7111281514
  C         1.5777062464       -0.1609759243        9.9421406285
  H         1.1761566230        0.7780910598       10.1370788491
  H         0.8022585988       -0.3132328969        7.9243565193
  H         1.5996001713       -2.5491021608        7.4919129350
  H         2.9284875007       -3.6929916544        9.1056179256
  H         3.1754720923       -2.7138355803       11.4727261788
  C        -0.5135185718        7.3303348833       14.8734418530
  C        -1.5824429810        7.8931216302       15.5924322752
  C        -2.6401759504        8.5352748689       14.8705389074
  C        -3.5815413715        9.3651514374       15.6235107498
  C        -4.5751336159       10.0503217223       14.9543851083
  C        -1.6210652598        8.2661716680       17.0359732592
  C        -0.8467424290        9.3409091082       17.5470815755
  C        -0.7602486412        9.6541075503       18.9409886007
  C        -1.5586608150        8.8922802252       19.7872564050
  C        -2.3903969573        7.8631634253       19.2992341005
  C        -2.4605358297        7.6080764094       17.9227178746
  H        -3.5247125448        9.4137347039       16.7015405265
  H        -5.3203353435       10.5752079483       15.4934312516
  H        -0.3154804898        9.9364631934       16.8289705328
  H        -0.2021912147       10.4948774295       19.3465056818
  H        -1.5417735437        9.0874512634       20.8635221295
  H        -2.9023689672        7.2228868428       20.0084566982
  H        -3.1137018487        6.8379028065       17.5419094591
  C        -0.5522349143        7.3170157822       13.4295695193
  C         0.4763433498        6.5854603484       12.6642438505
  C         1.5918755132        6.0864978767       13.3740353588
  C         1.6286080807        6.0747410819       14.8401005118
  C         0.5073609304        6.6143179525       15.5904626776
  C        -2.6387259130        8.6148465860       13.4353800953
  C        -1.5484770816        8.0088367468       12.7211773628
  C        -1.4792461038        8.4417066626       11.2929464549
  C        -0.7022809685        9.5336225781       10.9567096820
  C        -0.7639737433       10.0541343797        9.6574853957
  C        -1.6956255187        9.4906274926        8.7384236364
  C        -2.4922169885        8.3698657528        9.0344904652
  C        -2.3976118931        7.8425017106       10.3774332864
  H        -2.9546876831        6.9330762228       10.6668910657
  H        -3.0264957181        7.8620812686        8.2677518567
  H        -1.7407773300        9.8332084435        7.7025884526
  H        -0.0320067657       10.7864476276        9.2993681510
  H        -0.0007681962        9.9747569145       11.6610465000
  C        -3.7345468913        9.3180832948       12.7579168467
  C        -4.7043523809        9.9721873825       13.4935106504
  H        -5.5309218565       10.3794143440       12.9532831687
  H        -3.7536075253        9.6100446322       11.7107560280
  C         0.3056888740        6.2658795832       16.9978973174
  C        -0.6907484868        5.3283649338       17.2943620116
  C        -0.8337019018        4.8353545066       18.5685849202
  C        -0.0108620336        5.2116032196       19.6550151843
  C         1.0056361514        6.0153329575       19.2638734844
  C         1.2192663742        6.5566862903       17.9996951089
  H         2.0840682014        7.1959395700       17.8016834734
  H         1.7438565274        6.2403829800       20.0080061925
  H        -0.1477533154        4.9199892319       20.7207405533
  H        -1.7030229880        4.2321493280       18.8117845093
  H        -1.2154349095        4.8338863688       16.4571039281
  C         2.6686499673        5.3392305163       15.4652398750
  C         3.7557419229        4.8382377877       14.7838714018
  C         3.8336356563        4.9792585182       13.3799314747
  C         2.7219264552        5.4521205154       12.7010200123
  H         2.6761554131        5.4355720051       11.6438469796
  H         4.7815300956        4.7571979104       12.8931131793
  H         4.6093657013        4.4132471850       15.2656192814
  H         2.7428148604        5.1539136538       16.4878037196
  C         0.4952326867        6.3922869545       11.1288358402
  C        -0.2741897213        5.3251753885       10.5853621169
  C        -0.0236268286        4.8797014938        9.2522990833
  C         0.9168567221        5.5015532625        8.4231849386
  C         1.6528344484        6.6046280038        8.9708071619
  C         1.5039990028        6.9825465936       10.3086974342
  H         2.0452061138        7.8720313136       10.6192543251
  H         2.3823531896        7.1058841175        8.3216817394
  H         1.0215296911        5.2359198817        7.3600843137
  H        -0.6000296259        4.0286646748        8.9363268562
  H        -1.0221565342        4.7789390699       11.1355428039
