140

  C        15.6533157490       -0.1165959775        2.3108962220
  C        16.6081007629        0.6226856962        3.0822263913
  C        17.7503269352        1.1388618129        2.4242803055
  C        18.7586222792        1.9054299634        3.1146020938
  C        19.8359137713        2.4657794074        2.4621495022
  C        16.3949600592        1.0309215616        4.5566439617
  C        15.5922424180        2.1440018330        5.0047354103
  C        15.7468728457        2.5846784748        6.3326749028
  C        16.6740481811        1.9590495403        7.2278068977
  C        17.3336616627        0.7633579802        6.8309150359
  C        17.2667135004        0.3609954778        5.4704913775
  H        18.7146117677        1.8782484350        4.1978396752
  H        20.6585593496        2.8009405320        3.0865506334
  H        14.9947857547        2.7144905004        4.2771331861
  H        15.1890746636        3.3611967465        6.7775003065
  H        16.8644653563        2.3919682939        8.2242766392
  H        18.0162422366        0.2234676111        7.5446315110
  H        17.9226189196       -0.4275983260        5.0212378184
  C        15.7111666737       -0.0648556095        0.8111266466
  C        14.5924040471       -0.6124523718        0.1136056028
  C        13.4804790971       -1.1768289083        0.7533416406
  C        13.4817015973       -1.1836418594        2.1917387916
  C        14.5782014082       -0.7619272040        2.9068981674
  C        17.7900306849        1.1465714789        0.9880176968
  C        16.7632506776        0.6426906862        0.1728433342
  C        16.7738813304        1.0994897374       -1.2195961112
  C        16.0854631567        2.2816890787       -1.5984571449
  C        16.1439876979        2.7122585938       -2.9515942333
  C        16.7832656281        1.9399473569       -3.9203429914
  C        17.5280205354        0.7975536827       -3.5522960106
  C        17.5881614340        0.4089734190       -2.1747381200
  H        18.1528499994       -0.4517127715       -1.8387670681
  H        18.0496910032        0.1967011604       -4.2784263579
  H        16.7310442117        2.1810642897       -4.9447995887
  H        15.6887320354        3.6354627515       -3.3189299022
  H        15.6802949096        2.9853363177       -0.7993785803
  C        18.8802637093        1.8089161009        0.4002826984
  C        19.9518885870        2.3765488555        1.0812453374
  H        20.7606209348        2.8000881145        0.5572418185
  H        18.8386645874        1.9062781135       -0.6624842317
  C        14.7437852136       -1.1527309685        4.3708207749
  C        15.7148661382       -2.0842345380        4.7597731687
  C        15.8359818324       -2.4784658550        6.0591199372
  C        14.8846552682       -2.1486973476        7.0152569121
  C        13.8590820475       -1.2058521012        6.6395357616
  C        13.8620874627       -0.7048978739        5.3457371399
  H        13.0220820384        0.0161657179        5.1182347377
  H        13.2582208116       -0.8217300916        7.5265691517
  H        15.0003121291       -2.4166374145        8.0712319162
  H        16.6258165392       -3.1911778186        6.3261405368
  H        16.3695932143       -2.5392422283        4.0028830037
  C        12.3809337801       -1.8627281083        2.8704709654
  C        11.4293878099       -2.5106935846        2.0694921355
  C        11.5017735300       -2.5439262026        0.6465716563
  C        12.4748497650       -1.8285724305        0.0271675526
  H        12.5410342503       -1.7585804777       -1.0313793929
  H        10.6264021074       -2.9413199352        0.1826865191
  H        10.4792714752       -2.8811235935        2.5251423463
  H        12.4195976332       -1.9828121123        3.9443339049
  C        14.6872124983       -0.8423691668       -1.3675691174
  C        15.4322657816       -2.0125164232       -1.7705112674
  C        15.2931002630       -2.5718537608       -3.0233543719
  C        14.4130361080       -2.0175262115       -3.9363694491
  C        13.7465264166       -0.8915319518       -3.5462706071
  C        13.8832953078       -0.2896604158       -2.3367834040
  H        13.3162756321        0.6528215972       -2.1076281204
  H        13.1186617994       -0.4460489755       -4.3301877530
  H        14.1408524098       -2.4114332737       -4.9025037202
  H        15.9097089479       -3.4739827487       -3.2545217023
  H        16.1836032802       -2.4199908226       -1.0126919964
  C        11.9761198258        7.2197879259        2.4235869866
  C        10.9030335654        7.8697540654        3.0853742455
  C         9.8572209633        8.4236035103        2.2638063787
  C         8.6875883404        9.0661207960        2.8861474696
  C         7.8426956925        9.8084176041        2.1427129085
  C        10.8888887364        8.2139309023        4.5186598727
  C        11.6027474245        9.2900924587        5.0709671954
  C        11.4741755505        9.5657375537        6.4296241234
  C        10.6897319541        8.7682683305        7.2979622529
  C         9.9254514383        7.7285939340        6.7310478512
  C        10.1162777853        7.4816507657        5.3765955580
  H         8.5595703997        8.8271450541        3.9628688107
  H         7.0265321731       10.2623596762        2.6910567196
  H        12.2426815036        9.8574098467        4.4189257647
  H        12.0779629683       10.3009850938        6.8813428811
  H        10.7510922501        9.0420805841        8.3638235040
  H         9.3465552701        7.0571453446        7.3344078210
  H         9.6536107348        6.6116659120        4.9457221341
  C        12.0367255902        7.2406401700        0.9571062003
  C        13.1374124714        6.5468524176        0.3981425932
  C        14.2708688000        6.1452474267        1.1672298712
  C        14.1643209133        5.9887436052        2.6059468936
  C        12.9321961068        6.5033839831        3.2044541236
  C         9.9280595280        8.4801823896        0.7994358869
  C        11.0470665304        7.9154784980        0.1638461183
  C        11.2493150754        8.2585260266       -1.3424201131
  C        12.2235787036        9.1338435871       -1.8656631767
  C        12.1846400429        9.4913025996       -3.2166175014
  C        11.1571991420        9.0870945802       -4.0966462333
  C        10.2224787431        8.2162206925       -3.5906153608
  C        10.2253868437        7.8365436401       -2.2596066503
  H         9.3384533327        7.2879171219       -1.8615306528
  H         9.4277644039        7.8636727642       -4.1866801956
  H        11.1258532313        9.2151228949       -5.1568040722
  H        13.0460910010       10.0275558097       -3.5613722786
  H        12.9806372802        9.6394277650       -1.2323373870
  C         8.9214139549        9.2672949039        0.1267561675
  C         7.9384574883        9.9265691552        0.7543442766
  H         7.2109258284       10.4246900988        0.0780258739
  H         8.8606397712        9.1139488538       -0.9106468027
  C        12.8064273317        6.2046534449        4.6271989250
  C        12.1694736675        5.0381816706        4.9819426776
  C        12.1395433222        4.5562164855        6.2965140641
  C        12.7996561536        5.1944816468        7.3089092705
  C        13.4569322985        6.3921129814        7.0230113321
  C        13.4457534205        6.8286908910        5.6782242024
  H        13.9561891191        7.8176036943        5.4569381221
  H        14.0250432308        7.0462010278        7.7294342243
  H        12.7207896599        4.8977016269        8.3289850943
  H        11.4579320548        3.7358768659        6.5903280155
  H        11.5589513021        4.5105664310        4.2410175630
  C        15.0557043844        5.1225524284        3.2682282550
  C        15.9624146306        4.3577864138        2.5902879224
  C        16.1448404225        4.5726660159        1.1663182181
  C        15.3724409391        5.5088792300        0.5121362158
  H        15.4417391144        5.7763502376       -0.5512448707
  H        16.8949228403        3.9981213143        0.6216712117
  H        16.7632914596        3.7683104660        3.0585861852
  H        14.9124694246        4.8276648822        4.3127715609
  C        13.0901690836        6.1388120458       -1.0475637224
  C        12.2306704010        5.0608471987       -1.4616494913
  C        12.3068854157        4.5569220808       -2.7916795799
  C        13.3041248885        5.0733128919       -3.6135696473
  C        14.0801854563        6.1796516985       -3.3068368345
  C        14.0347760889        6.6508143211       -2.0140602431
  H        14.5278932693        7.5463470324       -1.6148703350
  H        14.8674038213        6.4457445124       -4.0096297643
  H        13.4635932250        4.6168041242       -4.6238752239
  H        11.7178819223        3.7183115226       -3.2235767968
  H        11.5214859040        4.7824201528       -0.7215379122
