140

  C         4.4566182493       -0.1869896861       15.6193770087
  C         5.5626893686        0.4068053076       16.2460112408
  C         6.6355379304        0.9792463609       15.4278668392
  C         7.7552486274        1.6592383637       16.0325400372
  C         8.6246752457        2.4432554504       15.3092590358
  C         5.5664548652        0.7891545145       17.7288742616
  C         4.7448929291        1.8508894394       18.2673012072
  C         4.8384621745        2.1597020161       19.6364907198
  C         5.7428436197        1.4847090482       20.3742356379
  C         6.5596700372        0.4256973363       19.8793654916
  C         6.4559520842        0.0999801230       18.5393644551
  H         7.8765133056        1.6933539345       17.0734182916
  H         9.3261122614        3.0377730248       15.8619695907
  H         4.0146246254        2.3240969801       17.6300357283
  H         4.1246626497        2.8394111795       20.1628492095
  H         5.8304456118        1.6405975840       21.4240329445
  H         7.2495937343       -0.1808051731       20.4804411316
  H         6.9698935787       -0.7936219235       18.1189323151
  C         4.4692927386       -0.2319279280       14.1765647642
  C         3.3724988527       -0.9059992217       13.5096881859
  C         2.2802213093       -1.4208230424       14.2695830945
  C         2.3726510478       -1.4618753754       15.7476229624
  C         3.4211443415       -0.8757298625       16.3684620863
  C         6.5551515029        1.0298662866       13.9900761849
  C         5.4381348953        0.4084629360       13.3901025586
  C         5.1022614876        0.9343482250       11.9556762857
  C         4.1244706921        1.9480881020       11.8069892099
  C         3.9193710178        2.5972213970       10.6275056073
  C         4.6113332843        2.1860389415        9.5301876487
  C         5.5308140206        1.1730081091        9.5838006153
  C         5.8279040189        0.5498028503       10.7869304308
  H         6.6078709830       -0.2059400196       10.8936603304
  H         5.9421836396        0.9399013390        8.6329900237
  H         4.5394233428        2.6515754503        8.5786329752
  H         3.2288052340        3.4011991934       10.6870692170
  H         3.6057679203        2.3326439564       12.6535959912
  C         7.4498987377        1.8887076084       13.2821191826
  C         8.5078052722        2.5513168551       13.9449996186
  H         9.1453015483        3.2482518251       13.4401504640
  H         7.3067508347        2.0259195378       12.2141184203
  C         3.5003980741       -1.1661317494       17.8837310434
  C         4.3192262812       -2.2100140003       18.3617174703
  C         4.2126462177       -2.6203751588       19.6948051787
  C         3.2345768294       -2.0239280670       20.5251308998
  C         2.4042009974       -1.0092252485       20.0093856637
  C         2.6390505423       -0.4143539571       18.7725833685
  H         1.9377234496        0.3689026141       18.5098800622
  H         1.6213258996       -0.5419021906       20.6652111102
  H         3.0305374302       -2.3189875145       21.5625607003
  H         4.7531883836       -3.4691953564       20.1348052152
  H         4.8475574175       -2.8115282234       17.6650345427
  C         1.3274889287       -2.1942050897       16.4350009912
  C         0.2611583065       -2.7611748484       15.7531429499
  C         0.2048282379       -2.7841563899       14.3186113962
  C         1.2734152921       -2.2214376858       13.6243247185
  H         1.3579905598       -2.2764534614       12.5066145023
  H        -0.4578260032       -3.4137133856       13.8141673992
  H        -0.4244221307       -3.3856367155       16.3423899658
  H         1.3332013166       -2.2242632683       17.5533021718
  C         3.3913978409       -1.1870275950       12.0025191767
  C         4.2386803653       -2.2506409891       11.6424834158
  C         4.3789009773       -2.7039317486       10.3479314322
  C         3.6829657037       -2.0467892445        9.3984577445
  C         2.7708724596       -0.9926706551        9.7075702368
  C         2.6670467651       -0.5218375304       10.9997049911
  H         1.9589037125        0.2371304917       11.3357686997
  H         2.0530574281       -0.5963680696        9.0202229642
  H         3.6266825555       -2.4758741326        8.3997995655
  H         4.9170836001       -3.6607139819       10.0842609915
  H         4.6833585116       -2.7612713237       12.4835140106
  C         0.9443929411        7.0758350349       15.5720082131
  C        -0.0622856250        7.8181923057       16.2624373714
  C        -1.1599304705        8.3466494501       15.5296761510
  C        -2.2776668066        8.9753766019       16.2130383994
  C        -3.3855975472        9.4208013186       15.5204891883
  C         0.0366557362        8.0338469597       17.7343053177
  C         0.9605551933        8.9945400229       18.2147377260
  C         1.0398655345        9.3760596452       19.5479611069
  C         0.0959672587        8.9322786816       20.4486905553
  C        -0.8674488154        7.9819092161       19.9760517311
  C        -0.8597995291        7.4772616671       18.6548890593
  H        -2.3031491545        8.9808106662       17.3024084298
  H        -4.3430818808        9.7413221651       15.8904116554
  H         1.5875205534        9.4112449926       17.3972420594
  H         1.7625690516       10.1556939674       19.7687280249
  H         0.0520206767        9.3849153185       21.4215430176
  H        -1.6022294498        7.5150011135       20.6326799247
  H        -1.5888421578        6.7521107671       18.2567169810
  C         0.9187627452        6.9997451506       14.0844521654
  C         1.7819856230        6.0546054295       13.4639272357
  C         2.9217331102        5.4753069722       14.1009996193
  C         2.9580074556        5.5606983996       15.5636706070
  C         1.9203147701        6.2566533305       16.2745056121
  C        -1.0561706526        8.5271420571       14.0834042443
  C        -0.0033388822        7.8709571696       13.3638030538
  C         0.1450848150        8.2322489147       11.9397034543
  C         1.1330955077        9.2320264922       11.6735237639
  C         1.3255309351        9.5922349962       10.3232619162
  C         0.5498343511        9.0886789390        9.2789722427
  C        -0.4140811137        8.1691020798        9.5699416799
  C        -0.5105998366        7.6974542285       10.9027808194
  H        -1.2015455300        6.8940040510       11.0711113436
  H        -1.0415150859        7.7582048208        8.7576354384
  H         0.5859908944        9.4563844471        8.2660070794
  H         1.9575390332       10.4642145079       10.1493651402
  H         1.6249458045        9.7711867633       12.5146725302
  C        -2.0136177072        9.4049820686       13.4728518117
  C        -3.2327469236        9.6940010439       14.1189407968
  H        -4.0074182208       10.2768020807       13.6088655233
  H        -1.8665490687        9.5729150989       12.4325780958
  C         1.9119943639        5.9679833649       17.7195462302
  C         1.0626064363        4.8546982589       18.1333261609
  C         1.1984712846        4.3000154613       19.3912300116
  C         2.1527257215        4.8386482510       20.2589043570
  C         3.0078254229        5.8901229217       19.9168706609
  C         2.9212373423        6.4471387879       18.6155959305
  H         3.4675277698        7.3210311951       18.2839796918
  H         3.7364350780        6.3403089736       20.5770365477
  H         2.1733170932        4.6742958168       21.3497498042
  H         0.4985119006        3.4778944978       19.6127943103
  H         0.2848935101        4.3719624127       17.4733018016
  C         4.0741364544        4.9573360357       16.2402244160
  C         5.0908728263        4.3630806937       15.4876506671
  C         5.0215398413        4.2200494848       14.0867554585
  C         3.9676098394        4.7628706733       13.3826869989
  H         3.9196041212        4.7275350141       12.2860291050
  H         5.8091200760        3.8078362550       13.4823066432
  H         5.9987065204        3.9968466014       16.0180935696
  H         4.2427440902        5.0099720621       17.2735465562
  C         1.5613948020        5.7286283162       12.0261019170
  C         0.6114431883        4.7772398126       11.6958519718
  C         0.2687829675        4.5514749884       10.3522672597
  C         1.0707257809        5.0291856530        9.3067633487
  C         2.1603871290        5.8445007190        9.6531115717
  C         2.3802043552        6.2337573206       10.9811711220
  H         3.1827030451        6.9122625420       11.2152481090
  H         2.7848493587        6.2735871986        8.8013724477
  H         0.7421089040        4.8033553342        8.3084003090
  H        -0.5713486387        3.9314644258       10.1795141916
  H        -0.0445568656        4.3831277517       12.4478031059
