140

  C        13.2325010943        0.4732450275        1.3711041186
  C        14.2264796922        1.1982293419        2.0652691666
  C        15.3220426244        1.7668889009        1.3675437523
  C        16.4219805102        2.4674189976        2.0022822583
  C        17.5200188934        2.9751446641        1.3092634510
  C        14.0684274190        1.6080266959        3.4657941627
  C        12.9927367473        2.4147175408        3.8303861702
  C        12.8833697669        2.8948981509        5.1521613984
  C        13.8472260397        2.4220902940        6.1005098657
  C        14.8475878503        1.5623055670        5.7311437975
  C        14.9289000855        1.1477376052        4.4143310929
  H        16.4668001622        2.5026562913        3.0986552795
  H        18.3714625666        3.5283782557        1.7306251732
  H        12.1846339950        2.6357626091        3.1455351244
  H        12.1643377609        3.6417939185        5.4261616649
  H        13.8582907367        2.8556815594        7.0989338736
  H        15.6719847844        1.3856895871        6.4319827871
  H        15.6913842125        0.4375867158        4.1571122701
  C        13.2141560439        0.4722652814       -0.1142743027
  C        12.0913261371       -0.1015485844       -0.8312666587
  C        11.0677417363       -0.6329918042        0.0215290774
  C        11.2450486767       -0.9642497037        1.4704195042
  C        12.3365166145       -0.3403154415        2.0836199267
  C        15.3237861834        1.6700878884       -0.0904162096
  C        14.2588664952        1.0829811153       -0.8254913537
  C        14.3325778092        1.3191176783       -2.3254132732
  C        13.7666739462        2.4661667608       -2.8390546941
  C        13.9162591465        2.8062188347       -4.2070089777
  C        14.7067647627        1.9955332524       -5.0702420407
  C        15.2909034766        0.8380425911       -4.5028159048
  C        15.1609032989        0.5418796132       -3.1397698117
  H        15.7571468490       -0.2369336444       -2.6389988200
  H        15.8759018686        0.2563488554       -5.2332523608
  H        14.7477305940        2.2802638414       -6.0985460032
  H        13.4367950631        3.7616558125       -4.5281427410
  H        13.3931133170        3.2069561589       -2.1440586013
  C        16.4681022529        2.2966554531       -0.7497748860
  C        17.4552283536        2.9668788846       -0.1258565706
  H        18.1995400065        3.4445696336       -0.6689508360
  H        16.5020061244        2.3607467814       -1.8665883981
  C        12.5113386743       -0.8246230589        3.5436505852
  C        13.4728088287       -1.7519920007        3.9677574514
  C        13.5781516382       -2.2876397792        5.2784645343
  C        12.5439260514       -1.9080334189        6.1549630074
  C        11.5890345045       -0.9546457366        5.7943462212
  C        11.5723811356       -0.3972679292        4.4960052500
  H        10.9020968610        0.3939417298        4.2239875936
  H        10.7921803745       -0.5226543035        6.4114552874
  H        12.4562490889       -2.0925716789        7.2042488886
  H        14.3700817824       -2.9288697072        5.5596911218
  H        14.2723563084       -2.0272397618        3.1851965146
  C        10.2686709402       -1.7189151795        2.1379980685
  C         9.2633776942       -2.3381395532        1.4178993151
  C         9.0572381831       -2.0097752119        0.0452441910
  C         9.9034739273       -1.1115105327       -0.6058372573
  H         9.6972120897       -0.9101157508       -1.6890866443
  H         8.2815724852       -2.4882650400       -0.5218330708
  H         8.5535896622       -2.9542407725        1.9600929293
  H        10.4032386274       -1.9707549735        3.1716969833
  C        11.9960347865       -0.3405107393       -2.3241777629
  C        12.6317353320       -1.5182041224       -2.7880255746
  C        12.3728506949       -1.9591250145       -4.1213155889
  C        11.6493628240       -1.1022088085       -4.9381175023
  C        11.0578959527        0.1334995336       -4.4967514002
  C        11.2418163412        0.5323527730       -3.1414523056
  H        10.7436868223        1.4095876170       -2.7628249252
  H        10.4303250981        0.6764471471       -5.2366102198
  H        11.4572106821       -1.3024149719       -6.0053054993
  H        12.7765650350       -2.9309162487       -4.4874311563
  H        13.2705813451       -2.1101975219       -2.0585395296
  C         9.6058896923        7.6088881753        1.0387409467
  C         8.5567104711        8.2676353357        1.7317117157
  C         7.5733874471        8.9740716553        1.0011550518
  C         6.4372204137        9.5384986762        1.7216538743
  C         5.4153899575       10.0880722177        1.0061857133
  C         8.5948966489        8.5042841042        3.2327020953
  C         9.5053696342        9.4822559265        3.6741918955
  C         9.5418518172        9.8726473737        4.9842729044
  C         8.7476011802        9.2787872137        5.9368154587
  C         7.9161912417        8.2341115865        5.4517535293
  C         7.7723358985        7.9085548799        4.1178902614
  H         6.2573689498        9.4868789385        2.8162824768
  H         4.4113070181       10.2730168195        1.3524510648
  H        10.0733551347        9.9939877481        2.9464872704
  H        10.0166302767       10.8148633464        5.2340429940
  H         8.7637830951        9.5552725418        7.0397647530
  H         7.2030727663        7.7754240756        6.0602716763
  H         7.0787699653        7.2188158024        3.7280882789
  C         9.6277401690        7.5635256018       -0.4074791356
  C        10.7001597406        6.9096244964       -1.1012576075
  C        11.8199831662        6.3858196843       -0.3923582367
  C        11.8144731264        6.3795195233        1.0042551918
  C        10.7087836903        6.8803961624        1.6384989576
  C         7.6207300081        9.0649089597       -0.4358149057
  C         8.6441677140        8.3458235580       -1.1281101245
  C         8.6274771192        8.6630449202       -2.5682387057
  C         9.2482460755        9.9114022540       -3.1116676043
  C         9.0286611004       10.3438993846       -4.4211796934
  C         8.2368323170        9.5963575948       -5.2696268685
  C         7.6520328867        8.4216603834       -4.7882954077
  C         7.8239408660        7.9681666443       -3.4807414889
  H         7.1906241003        7.1692176854       -3.1346545125
  H         6.9401953464        7.9209342288       -5.4473767721
  H         8.0591612492        9.9369269316       -6.2773775439
  H         9.5433893678       11.2656818974       -4.7335248891
  H         9.7674647043       10.4354650697       -2.3512942291
  C         6.6132216606        9.8504204085       -1.1765380590
  C         5.5183945564       10.2838752782       -0.3918961528
  H         4.6989395900       10.8665615051       -0.8709532046
  H         6.6774230912        9.9945634856       -2.2822193531
  C        10.7041060571        6.6316371503        3.1502087237
  C         9.8076887860        5.6859114021        3.6624151789
  C         9.7766014942        5.4798602068        5.0523346330
  C        10.8267985847        6.0121763246        5.9230110013
  C        11.7400199716        6.9052484855        5.3767876953
  C        11.6400261509        7.2629652270        4.0443612242
  H        12.2583436515        8.0766653385        3.7060436337
  H        12.4630181203        7.4476932466        6.0026972920
  H        10.9967438388        5.6672820603        6.9441649438
  H         8.9220168300        4.9584545247        5.4808197405
  H         8.9671032359        5.3166934431        3.0713757602
  C        12.9882097053        5.8285587179        1.6777050262
  C        14.0290731030        5.2962129195        0.9405518331
  C        13.9858442843        5.2537298045       -0.4746242724
  C        12.9202728067        5.7083053048       -1.1100321737
  H        12.8603443378        5.4832005906       -2.1784930055
  H        14.8166987535        4.7402601573       -1.0209407672
  H        14.8956337582        4.8750571804        1.4609169210
  H        13.1536835413        5.8850606885        2.7067506189
  C        10.5379108737        6.7146452848       -2.6154702215
  C         9.7110864632        5.6225615851       -3.1135739159
  C         9.6803464814        5.2786654359       -4.4369786484
  C        10.5453516926        5.9300437763       -5.3612176158
  C        11.3803331878        7.0113783381       -4.9380656278
  C        11.4070153869        7.3871385720       -3.5425224967
  H        11.9983234512        8.1435568565       -3.1176249922
  H        12.1718347213        7.4461866908       -5.5393690651
  H        10.5720629775        5.6981666103       -6.4293425198
  H         8.8599787663        4.6238188244       -4.8372903061
  H         9.0429036982        5.0815330373       -2.4146283513
