140

  C         5.6690751718       -0.5813712152       16.2277911914
  C         6.7308288866        0.0897700530       16.8138779232
  C         7.7956020590        0.6527329655       16.0686709695
  C         9.0061805478        1.2227150866       16.6955958415
  C         9.8455736743        2.0153074955       15.9211720171
  C         6.6256559822        0.5054267464       18.1973919075
  C         5.8121082574        1.6252777428       18.6457734169
  C         5.8117225018        2.1185374256       19.9497282024
  C         6.6084381638        1.4896655991       20.9529494771
  C         7.3232286299        0.3457403600       20.5687877198
  C         7.3487705485       -0.1206904660       19.2260219032
  H         9.2163512984        1.1540466770       17.7592122143
  H        10.6918078449        2.5049245567       16.3010085972
  H         5.1568732968        2.1084383667       17.9549709227
  H         5.1362156702        2.9738317757       20.1951962986
  H         6.8619376264        2.0034701297       21.9184685862
  H         7.9073711254       -0.1413309803       21.3811936512
  H         7.8600720676       -1.0688658597       19.0751751201
  C         5.6304637590       -0.6532091226       14.7338803549
  C         4.5466147131       -1.3675507969       14.1256717480
  C         3.4851373579       -1.9178861420       14.9182886939
  C         3.5071678107       -1.8521788779       16.4122160438
  C         4.6512466120       -1.2509588687       17.0079981850
  C         7.7150534231        0.6619746540       14.6204672059
  C         6.6273661023        0.0386582808       13.9763370153
  C         6.4437502704        0.3853371677       12.4559405898
  C         5.6183951249        1.4808226550       12.1733313737
  C         5.5673576971        1.9215135961       10.8409154902
  C         6.3470869676        1.4430568745        9.8371517539
  C         7.1342711582        0.2602694944       10.0928234787
  C         7.2257342492       -0.2228207408       11.4040851150
  H         7.9198632478       -1.0230227659       11.5930408707
  H         7.8329405845       -0.0839872203        9.3737928840
  H         6.4173562021        1.9146654139        8.8967365473
  H         4.9807989449        2.8145686007       10.5728233747
  H         5.0161814117        1.8625340238       12.9698679968
  C         8.6303107978        1.4644365034       13.8552265179
  C         9.6445758174        2.1381403344       14.5468685164
  H        10.3525491855        2.7194616276       13.9686249017
  H         8.5977278238        1.4940078033       12.7657263753
  C         4.8344144115       -1.6913062377       18.4338623782
  C         5.6817862450       -2.7268681972       18.7289616303
  C         5.6419166684       -3.2849521979       20.0394246940
  C         4.8251175258       -2.7045901171       20.9952313027
  C         4.1194964245       -1.5351808157       20.7294384560
  C         4.0326887943       -1.1202964090       19.4064801896
  H         3.3180542003       -0.3106816151       19.1290505456
  H         3.6020117152       -1.0089954838       21.4778706627
  H         4.7245364646       -3.1765667225       21.9911982041
  H         6.1221728926       -4.2199412307       20.2445122787
  H         6.4147676909       -3.0027017341       17.9969784514
  C         2.5010454360       -2.5741668573       17.1381064492
  C         1.5136961043       -3.2423824462       16.4719626847
  C         1.4954845795       -3.3594693690       15.0420814168
  C         2.4549692686       -2.6785631384       14.2683030412
  H         2.5773724917       -2.8326349340       13.2004771497
  H         0.8752481503       -4.0910046604       14.5998103507
  H         0.7657075389       -3.8621389671       17.0517965857
  H         2.5763876292       -2.6489073346       18.2535530145
  C         4.5067463043       -1.7706639987       12.6737891784
  C         5.3949006726       -2.8832812126       12.2880840463
  C         5.4982903597       -3.2548185731       10.9422133502
  C         4.6638388132       -2.6293275711        9.9909059807
  C         3.8020543762       -1.5942730163       10.4106480149
  C         3.7692597454       -1.0943770201       11.6885004200
  H         2.9927108882       -0.3623198540       11.9952854446
  H         3.2012804494       -1.1068139705        9.6033482021
  H         4.7558580109       -2.7866416683        8.9316610654
  H         6.3016332267       -3.9449405053       10.7886174472
  H         5.8490613863       -3.4283574033       13.1120102029
  C         2.0141470105        6.8610971529       16.0770308171
  C         0.9978302112        7.5624356162       16.7969545612
  C        -0.0713954376        8.1054708608       16.1779228050
  C        -1.1876611181        8.8756813892       16.8089191625
  C        -2.2428960240        9.3656243718       16.0294609840
  C         1.2215721107        7.9783059173       18.1959695779
  C         2.3137770727        8.7985903146       18.4948771591
  C         2.4093901148        9.3938887687       19.8308118831
  C         1.4276931036        9.2147854969       20.7466117658
  C         0.3503033197        8.2695197525       20.5233849093
  C         0.3204276324        7.6625715958       19.2448692841
  H        -1.1334945312        9.0602972425       17.8786171316
  H        -3.0113451701        9.9468168455       16.5605575475
  H         3.0409125890        8.9365657356       17.6743952480
  H         3.1886488101       10.1036346816       19.9597345722
  H         1.5288885319        9.6730088990       21.7398313090
  H        -0.4578404323        8.0218037988       21.2287948988
  H        -0.4845431262        7.0147219112       19.0076472166
  C         2.0743171207        6.9304868697       14.6490732651
  C         3.0174520816        6.1885594045       13.8476267434
  C         3.9753381336        5.4892115358       14.5754911557
  C         4.0194648971        5.4789387794       15.9993958845
  C         2.9900342984        6.0994525773       16.8137176193
  C        -0.1371146219        8.0554540947       14.7102198772
  C         1.0370496137        7.6237159553       13.9721510216
  C         1.1154762825        7.9639194203       12.5683551655
  C         1.8168607422        9.1233041110       12.1682169386
  C         1.8192313033        9.5799022322       10.8221759197
  C         1.1096981056        8.8810509927        9.8242635172
  C         0.3637874445        7.7320436737       10.2396264988
  C         0.3992171346        7.3421478055       11.5681936325
  H        -0.1082111578        6.3789440868       11.7185318272
  H        -0.1911072099        7.1036970350        9.4951562648
  H         1.1612907177        9.1405135636        8.7590432925
  H         2.3595442987       10.4321314912       10.5182914436
  H         2.3668754542        9.7778979906       12.8851190399
  C        -1.1762015186        8.6810703003       13.9764003165
  C        -2.1840922162        9.3045280271       14.5817642588
  H        -2.9706227614        9.8785041735       14.0617693790
  H        -1.2340366849        8.6215304489       12.8818757995
  C         2.9406552008        5.7775503602       18.2526428717
  C         2.2181670131        4.6507430811       18.6694037313
  C         2.4518009271        4.1211167009       19.9661442983
  C         3.3197730439        4.6605351935       20.8694009963
  C         4.0671239025        5.8270851777       20.4733597174
  C         3.8215117015        6.3681084412       19.2460334885
  H         4.2610875435        7.2977547763       18.9611870501
  H         4.5934121154        6.3500648287       21.2475114965
  H         3.6478396374        4.2315786355       21.8250263304
  H         1.7222115067        3.3784586385       20.3155351123
  H         1.4082100457        4.1855826199       18.0562217454
  C         5.2127970243        4.9090319798       16.6832946571
  C         6.1127216560        4.2324401634       15.9643655462
  C         6.1002303303        4.2145767145       14.5997137235
  C         5.0419683373        4.7928245968       13.8703626380
  H         5.0378372488        4.8784986857       12.7597439629
  H         6.8961231867        3.8846302572       13.9885628835
  H         6.9203713551        3.7048964535       16.4941479437
  H         5.2937533084        4.8754265135       17.7473018091
  C         2.8773416956        5.9310490146       12.3654351017
  C         2.0505713303        4.7934862913       12.0571326717
  C         2.1938238367        4.1839662711       10.8308490094
  C         2.9820133125        4.7431999998        9.8192310893
  C         3.8501571230        5.7954571119       10.1907901481
  C         3.7517935424        6.4889409556       11.4172997431
  H         4.3469803227        7.3811706968       11.5835745248
  H         4.5490672538        6.2090416433        9.4191136810
  H         3.0360457968        4.2854362351        8.8311001944
  H         1.5861326316        3.3120194152       10.6259196256
  H         1.4116386213        4.2728311000       12.7810807801
