140

  C        13.5388757878        0.1242335260        1.2729382176
  C        14.5745014204        0.8798376065        1.9744647753
  C        15.5989967665        1.4782584598        1.1484131653
  C        16.7064389838        2.1935659720        1.7391119815
  C        17.6482301573        2.9547152397        1.0243937694
  C        14.5375101506        1.1907542690        3.3742043339
  C        13.8787612133        2.3506428832        3.8247626976
  C        13.9308593463        2.7454607663        5.1739154329
  C        14.7397148246        1.9999040280        6.0542284406
  C        15.3722203343        0.7801206777        5.6283887088
  C        15.3398319546        0.4712563063        4.2605944666
  H        16.6163406497        2.3582305788        2.8361994684
  H        18.3485282430        3.5838563892        1.5685655235
  H        13.2319777979        2.8448213170        3.1125950020
  H        13.4396685354        3.5880327265        5.6074169665
  H        14.8400553848        2.2601568062        7.1270181263
  H        15.9748833510        0.0925161267        6.2797020764
  H        15.8122949623       -0.4412243867        3.9630804828
  C        13.4501991197        0.1522210484       -0.2360855658
  C        12.3959634850       -0.4944966894       -0.8784655034
  C        11.3752123397       -1.1016926190       -0.0659362522
  C        11.4268790148       -1.1760869683        1.3511929419
  C        12.5729702057       -0.6433086314        1.9936536177
  C        15.5407274132        1.4424556130       -0.3292101402
  C        14.4381374599        0.8481630692       -0.9920165088
  C        14.1490715169        1.1848225530       -2.4783308079
  C        13.3986465956        2.3257419724       -2.7277645498
  C        13.3720024673        2.9028026980       -3.9715747019
  C        14.2530834695        2.5038728400       -4.9423486644
  C        15.0434325575        1.3756056661       -4.7469399791
  C        15.0199659326        0.7436178393       -3.4598761810
  H        15.6910297084       -0.0868807040       -3.2039255095
  H        15.8187684061        1.0386510864       -5.4004888029
  H        14.3683017163        3.1042730881       -5.8472598008
  H        12.7683774105        3.7720364522       -4.1952738544
  H        12.7701754784        2.7332432121       -1.9472522769
  C        16.5480676686        2.2184987536       -0.9961825214
  C        17.5611141264        2.9053185716       -0.3884280987
  H        18.3963466640        3.4084186681       -0.9823352693
  H        16.5056602677        2.3125917081       -2.0283845120
  C        12.7148199592       -0.9083415193        3.4033619953
  C        13.6414255426       -1.8780034201        3.8809688446
  C        13.7024288568       -2.1605239631        5.2883949809
  C        12.7787761886       -1.6139164563        6.1700319226
  C        11.8564691997       -0.6820472298        5.6609027032
  C        11.8737660586       -0.3120672898        4.3505801141
  H        11.1936869444        0.4347105609        3.9885632280
  H        11.1746844002       -0.1890894707        6.3333700304
  H        12.8788236448       -1.7589615980        7.2232529544
  H        14.3900227553       -2.9407968958        5.6072029287
  H        14.3477408361       -2.3545071755        3.1213690745
  C        10.3917668294       -1.8282902211        2.0951142690
  C         9.2748898146       -2.3119328345        1.4040980134
  C         9.0845979300       -2.0122160587        0.0887287709
  C        10.0942105952       -1.5222320527       -0.6401389950
  H        10.0270488376       -1.4587985730       -1.8044624598
  H         8.1932488935       -2.3484914657       -0.4624522362
  H         8.4624847480       -2.7620186404        2.0038063119
  H        10.5243237265       -2.0351884967        3.1486642752
  C        12.3773713398       -0.8134566870       -2.3669520948
  C        13.1611001410       -1.9324730119       -2.7717200781
  C        13.1101248421       -2.5034198142       -4.0800780792
  C        12.1636858531       -1.9354583457       -5.0280664599
  C        11.4333689621       -0.8046608426       -4.6265808149
  C        11.5809003709       -0.1998069147       -3.3568262712
  H        11.2407522495        0.8032898751       -3.0650181935
  H        10.9315365448       -0.2238051724       -5.4030247086
  H        12.1494739943       -2.3031000295       -6.0464351116
  H        13.8830214877       -3.2380890379       -4.3782605329
  H        13.8661095551       -2.3490515175       -1.9878888406
  C         9.9146230891        7.4491199488        1.2384983995
  C         8.9198407911        8.1452421975        2.0034341847
  C         7.8382434910        8.7501150531        1.3483238626
  C         6.7495869668        9.4196607300        1.9786191137
  C         5.7439410167        9.9791840393        1.3040595865
  C         8.9672696285        8.5500071030        3.4769329204
  C         9.7272072106        9.6378682933        3.7954269831
  C         9.7234274953       10.2924000388        5.0001758514
  C         8.9464966228        9.7154543421        6.0159395447
  C         8.1431691220        8.5844500424        5.7463054691
  C         8.0974874097        8.0425166064        4.5056531364
  H         6.5769680716        9.3551650794        3.1035856679
  H         4.8966390951       10.2782531678        1.8971091800
  H        10.3830320629       10.0576801547        3.0556102095
  H        10.3616076345       11.0745633024        5.3821416704
  H         8.9211617621       10.1148480101        6.9639457460
  H         7.5915784096        8.1723067672        6.5620379734
  H         7.6115801227        7.1535402350        4.2381350886
  C         9.9487484157        7.4832428004       -0.2339991007
  C        10.9244481388        6.7054582335       -0.9106024214
  C        12.0605763771        6.1614375598       -0.2522733660
  C        12.0589844022        6.2514712986        1.1922071747
  C        10.9882480162        6.8151086277        1.8860161026
  C         7.8148379672        8.7469178597       -0.1795107123
  C         8.9032428038        8.2075832164       -0.9275929193
  C         8.9166071418        8.5567819159       -2.4079479326
  C         9.4096324227        9.7988994943       -2.8909854243
  C         9.4001808120       10.0659951771       -4.3273343064
  C         8.6666768200        9.2742597371       -5.1898588479
  C         8.0475962741        8.1263054721       -4.6306407313
  C         8.1334116513        7.7503664728       -3.2905046708
  H         7.8010624980        6.8589807831       -2.8998570635
  H         7.4417678597        7.5647788478       -5.3693028602
  H         8.6310191933        9.4523366200       -6.2588930677
  H         9.8421644837       11.0177548916       -4.6162327936
  H         9.9567875884       10.4813625638       -2.2416256795
  C         6.7429712844        9.3863954035       -0.8300673870
  C         5.6842656443        9.9597768593       -0.0988664559
  H         4.7124716343       10.2725514766       -0.5057611330
  H         6.7321019965        9.2937000430       -1.9503473167
  C        10.9979805603        6.5094423796        3.3663608416
  C        10.1804543667        5.5414014104        3.8566353448
  C        10.0773185058        5.2662477615        5.2665082486
  C        10.9711772175        5.9670307937        6.1536955092
  C        11.8470787349        6.9889485184        5.6048327568
  C        11.8925776777        7.2138054604        4.2528569422
  H        12.5093861754        8.1104686773        3.9784966847
  H        12.5972329851        7.4825938925        6.2130634925
  H        10.8890641816        5.9164447907        7.2428612706
  H         9.5015404383        4.4703635943        5.7497023532
  H         9.5923383562        4.9233776794        3.1717923947
  C        13.2390251109        5.7180225867        1.8192306002
  C        14.3307897264        5.1714470912        1.1559448852
  C        14.2795412557        5.0969304263       -0.2020371766
  C        13.1534781166        5.5796422779       -0.8644517966
  H        12.9741223986        5.4981152966       -1.9309922917
  H        14.9379473407        4.5098501803       -0.8656803284
  H        15.2869821186        4.7863515021        1.5772862252
  H        13.1764047327        5.6959986180        2.9234741556
  C        10.8648658372        6.3155980197       -2.3375410797
  C         9.9949947767        5.2115451875       -2.5749872366
  C        10.0891936351        4.6662895882       -3.8611300354
  C        10.8473484629        5.2695240479       -4.9085102055
  C        11.5785165228        6.4586218400       -4.6820705806
  C        11.6435979055        6.8748517936       -3.3602629272
  H        12.2722685593        7.7821796127       -3.0311384027
  H        12.2636341625        6.8084577076       -5.4231014496
  H        10.7205606154        4.8334477543       -5.8820140389
  H         9.4693236208        3.8268032876       -4.0623940346
  H         9.3120530020        4.9203295283       -1.7880106092
