140

  C        16.1568563025        0.0560063639        2.5195720197
  C        17.2608899246        0.7055411430        3.1604560726
  C        18.3648486382        1.2214125399        2.4351537273
  C        19.6159449522        1.7155124159        3.0661927936
  C        20.5939008782        2.2114385697        2.2776993963
  C        17.2398441307        0.9448513037        4.7081239691
  C        16.4035849599        1.9277670226        5.1968301348
  C        16.3052919572        2.2533446659        6.5715652623
  C        17.2238127314        1.7214267869        7.4743888636
  C        18.1130805513        0.7709980209        6.9888285489
  C        18.1136486352        0.3496846304        5.6514177623
  H        19.7008431256        1.5628631856        4.1368762773
  H        21.5717712092        2.3998855880        2.6762542789
  H        15.6126131109        2.2625331249        4.5503235321
  H        15.5109401890        2.9132126053        6.8958743639
  H        17.2191304502        2.0939430267        8.4527514809
  H        18.7737444445        0.2980776169        7.6507181186
  H        18.7416926784       -0.4579055791        5.3561799955
  C        16.1028378056        0.0876241815        1.0388488858
  C        15.1255586124       -0.7645895370        0.3752456918
  C        14.1098144840       -1.4186373187        1.0203476782
  C        14.0819876696       -1.3562464927        2.4581726100
  C        15.1572324997       -0.7172680730        3.2285542720
  C        18.2528984220        1.3213030908        1.0039904618
  C        17.0817120186        0.8490046554        0.3657928241
  C        16.8655792038        1.2180433877       -1.0381879672
  C        16.0395229528        2.2296834488       -1.5062053514
  C        16.0335315325        2.5638839906       -2.9034777475
  C        16.9932070409        2.0798590946       -3.7704002712
  C        17.7841551590        1.0618208825       -3.2830709206
  C        17.7657101518        0.6268559484       -1.9528476497
  H        18.3607341248       -0.2604350891       -1.7108094235
  H        18.4963856908        0.6479663958       -4.0080232644
  H        17.0091597058        2.4703345941       -4.8023275008
  H        15.2866541625        3.3223764964       -3.2911124527
  H        15.2070838802        2.6060227731       -0.9135718279
  C        19.3027774870        1.9484646995        0.2715779954
  C        20.4387165618        2.3772583831        0.9075374969
  H        21.2161495758        3.0791811161        0.4217077759
  H        19.1543384736        2.1565260351       -0.8296676480
  C        15.2564840426       -1.0604009444        4.6509099683
  C        16.0916990290       -2.1117528225        5.0876548270
  C        16.1549459114       -2.4242649494        6.4608281071
  C        15.4166402545       -1.6648111174        7.3947776234
  C        14.4933825148       -0.6899890524        6.9191008019
  C        14.4142595352       -0.3921721521        5.5616565684
  H        13.6522808982        0.3028576830        5.2584557148
  H        13.8024672406       -0.1138948436        7.6344377657
  H        15.4704080460       -1.7917656561        8.4643167827
  H        16.7677241411       -3.2390109487        6.8016479453
  H        16.7999045349       -2.6477891290        4.4140137107
  C        13.0614208150       -2.1053012973        3.2138417777
  C        12.0707410675       -2.7921295180        2.5125703365
  C        12.1407690050       -2.8066870517        1.1407788732
  C        13.0602258724       -2.1405695569        0.3483079317
  H        12.9893120177       -2.0790987456       -0.7321403517
  H        11.3605414404       -3.3320107277        0.6527530355
  H        11.1877439071       -3.0828908037        3.0742651057
  H        13.0178198627       -2.0080251828        4.2915806133
  C        15.4044485430       -1.2321075797       -1.0488333291
  C        16.4547484424       -2.1177208586       -1.2697490760
  C        16.7786608419       -2.5841776128       -2.4959803564
  C        15.9624208370       -2.1861353779       -3.5576549645
  C        14.8396451956       -1.3705483748       -3.3961113471
  C        14.5953851032       -0.8430356273       -2.1464184596
  H        13.7721466787       -0.2118001431       -2.0302642075
  H        14.1196757867       -1.2727537301       -4.1859581690
  H        16.2230974690       -2.6169447538       -4.5162830182
  H        17.6479461583       -3.2308706298       -2.6159853965
  H        16.9647316993       -2.4738985328       -0.4044900907
  C        12.4593375522        6.9476559334        2.5203901875
  C        11.3736274367        7.5180364441        3.1979882391
  C        10.2315869519        8.0364003660        2.4980158358
  C         9.1605048200        8.7984908005        3.1003591721
  C         8.2832733727        9.4796553976        2.3965693583
  C        11.6310943612        7.9967438318        4.5951055226
  C        12.4881712265        9.0754805928        4.8003582183
  C        12.5931817407        9.7133066943        6.0632274545
  C        11.7945724661        9.2130118189        7.1410770493
  C        10.9582223978        8.0767996976        6.9683423056
  C        10.8601033482        7.4995321619        5.6708176863
  H         9.1560765411        8.8427162849        4.1803135840
  H         7.4899922454       10.0096533736        2.9390010776
  H        13.1034796635        9.4683857020        4.0169097799
  H        13.3002740900       10.5538319087        6.2203048250
  H        11.8098360018        9.7466894490        8.0741564479
  H        10.3095269887        7.7241178960        7.7799784848
  H        10.2329610346        6.6641946238        5.4603077245
  C        12.5295748418        6.9744486528        1.0359523355
  C        13.5755403152        6.2765481910        0.3425630474
  C        14.7256063792        5.8027971129        1.0595355550
  C        14.7021501506        5.8611330894        2.5351464862
  C        13.5792524093        6.3504880593        3.2221809579
  C        10.3664652677        8.1512586322        1.0757169409
  C        11.4395929132        7.6388942439        0.3526295433
  C        11.6699254336        8.1071817253       -1.0414221562
  C        12.5001326849        9.2170024965       -1.2954407440
  C        12.7450127722        9.7377698531       -2.5395958961
  C        12.0651800080        9.1589309528       -3.6046447288
  C        11.1515990492        8.1559129336       -3.4388544971
  C        10.9268474673        7.5472557427       -2.1675994215
  H        10.3936843231        6.6175747884       -1.9889690120
  H        10.7023284073        7.7576660140       -4.2953340721
  H        12.1723787748        9.5578978765       -4.5849077173
  H        13.5081158454       10.5054634874       -2.6306189721
  H        13.0469479796        9.6266909196       -0.4875711485
  C         9.3386087719        8.8720560122        0.3433067972
  C         8.3854128196        9.5437393709        0.9956120293
  H         7.7777719345       10.2964044566        0.4476336060
  H         9.4814870470        9.0560379264       -0.7302368537
  C        13.6264168334        5.9942686156        4.7403496160
  C        12.7874894025        4.9391924062        5.1573286400
  C        12.7517278792        4.5362064683        6.4781225209
  C        13.5313888773        5.1903918212        7.3852239792
  C        14.3664626811        6.2280943163        7.0427587100
  C        14.4541035162        6.5444525215        5.6829341438
  H        14.9865178861        7.4548643596        5.4304922122
  H        14.9688316375        6.7496768743        7.7275635388
  H        13.4312230256        4.7982964646        8.3892291272
  H        12.0497602801        3.7703995034        6.8319421815
  H        12.2165250673        4.5081966166        4.4016784616
  C        15.8609574979        5.3459325524        3.2327208194
  C        16.8771681383        4.6845874746        2.5757385534
  C        16.8736991995        4.6659146812        1.1653502558
  C        15.8281855544        5.1398985204        0.4585291979
  H        15.8045132392        5.1796521071       -0.6390178632
  H        17.6466695508        4.0660291839        0.6454502159
  H        17.7522261936        4.4333511454        3.2055024031
  H        15.8373064878        5.2874677761        4.3420478117
  C        13.5025664090        5.8854287725       -1.0998254651
  C        12.7676688005        4.7157573864       -1.4508666918
  C        12.7875728874        4.2581547343       -2.7518776425
  C        13.5200013769        4.9026496812       -3.7419567204
  C        14.2136314253        6.0493183675       -3.4483149425
  C        14.2370232687        6.5134897735       -2.1280103942
  H        14.8434917254        7.4383541193       -1.7982525576
  H        14.7811431999        6.6037172019       -4.2173527560
  H        13.5283536139        4.5828679060       -4.7760356718
  H        12.2730961008        3.3660868364       -3.1217865531
  H        12.1562434334        4.3111780914       -0.6566180252
