140

  C        16.2563487902       -0.0514638320        2.6923485820
  C        17.2762294809        0.6924835007        3.3326152093
  C        18.3747398766        1.1650138265        2.5378561775
  C        19.4383324541        1.8974498565        3.2066203685
  C        20.5722026935        2.3409291707        2.4943634061
  C        17.1659320315        1.1092667195        4.7721049590
  C        16.4684646549        2.2721724140        5.0571036455
  C        16.3440077304        2.8352823304        6.3283729323
  C        17.0118726704        2.1589923189        7.3913566974
  C        17.7743770868        1.0175219674        7.1308938334
  C        17.7904808895        0.4160980148        5.8384608313
  H        19.4859203389        1.8498087883        4.2953462050
  H        21.3788683843        2.8696219148        2.9544626295
  H        15.8787654878        2.7046404673        4.2192814581
  H        15.8461937462        3.7502437305        6.4409018114
  H        17.1026495077        2.6049815565        8.3156641119
  H        18.3757315559        0.5669984679        7.8867851094
  H        18.3600121400       -0.4549126605        5.6078354263
  C        16.2121253842       -0.1122050881        1.2143024921
  C        15.2508346819       -0.9132897651        0.5463345315
  C        14.1574080405       -1.3837781806        1.2659083281
  C        14.0912559526       -1.2140031530        2.6675520869
  C        15.1670470919       -0.6553911916        3.4118620961
  C        18.3740620273        1.1180403431        1.0599957604
  C        17.2158511406        0.5700523215        0.4184857823
  C        16.9765952670        1.0376814316       -0.9910181344
  C        16.0126542374        1.9649663046       -1.2841898129
  C        15.7734936422        2.4651861740       -2.5613497485
  C        16.6746472676        2.0487783030       -3.6132238798
  C        17.8710059386        1.3644886018       -3.2777980938
  C        17.8928865022        0.7188152356       -2.0242127708
  H        18.6084933215       -0.0642881067       -1.9594413923
  H        18.6545955373        1.1446995239       -4.0270981363
  H        16.6053621993        2.5615330994       -4.5606399589
  H        14.9097396677        3.0952803210       -2.7786229670
  H        15.4292754016        2.3648827146       -0.5160737643
  C        19.4768765303        1.6616277414        0.3567379797
  C        20.5219564239        2.2766503718        1.0479265450
  H        21.2909063249        2.8727070141        0.5034271988
  H        19.4198378940        1.7098795201       -0.7234644708
  C        15.2773045206       -1.1205551310        4.8304934549
  C        16.2456001110       -2.1226934143        5.0525504380
  C        16.3815023887       -2.7106612185        6.3460576915
  C        15.4434614477       -2.3991061708        7.3017263472
  C        14.5227000275       -1.3720119294        7.0733132727
  C        14.5067101797       -0.6851633796        5.8647817816
  H        13.7532150980        0.1856369984        5.7905688653
  H        13.7075604032       -1.1291307616        7.8708630777
  H        15.3851507766       -2.9125863912        8.2850764482
  H        17.1643063118       -3.3939644679        6.5559757107
  H        16.9254857061       -2.3658880112        4.2901072043
  C        12.9338364005       -1.7063639339        3.3420721972
  C        12.0263417156       -2.5950159041        2.7064367766
  C        12.0689554667       -2.7404697098        1.3187410088
  C        13.0912103638       -2.1377963412        0.6117012768
  H        13.0363067464       -2.3140492987       -0.4598807789
  H        11.3587942846       -3.4744309751        0.8725374357
  H        11.2402316239       -3.0939871571        3.2773465782
  H        12.9258270515       -1.4788115152        4.3941398073
  C        15.4094791584       -1.4490828062       -0.8681093625
  C        16.3167728174       -2.5019652777       -1.1303065132
  C        16.3082148425       -3.1067268451       -2.4030569097
  C        15.4089586669       -2.6062929798       -3.4559497897
  C        14.6043819197       -1.4837070338       -3.1879402787
  C        14.5354158147       -0.9692849216       -1.8553081890
  H        13.8983538879       -0.1713476542       -1.5756592544
  H        14.0891704412       -1.0637028764       -4.0451677215
  H        15.5756352718       -2.8962113336       -4.4627998726
  H        16.9812619350       -3.8761783197       -2.5936049661
  H        17.0553245849       -2.7000891625       -0.3347736356
  C        12.6302449407        6.8417068359        2.4864327490
  C        11.5331779571        7.5709663108        3.0935698533
  C        10.3932482402        7.9785260105        2.4036926001
  C         9.2621010014        8.5087990543        3.0070521281
  C         8.1985666796        8.9920389934        2.2666715418
  C        11.6323213019        8.0980058849        4.4983539449
  C        12.5013090002        9.1389784863        4.8526126289
  C        12.4361199766        9.6883680698        6.1474072817
  C        11.6139473169        9.1418751774        7.1393275300
  C        10.8165324660        8.0704330793        6.8079062054
  C        10.7335161843        7.6119008751        5.4941571881
  H         9.0833439821        8.3838513064        4.0825248875
  H         7.2422589653        9.1269245997        2.7884098160
  H        13.1782758449        9.5828144819        4.1873104190
  H        13.1442046958       10.4435810597        6.4831844672
  H        11.5715617849        9.5586240642        8.1229391337
  H        10.1262100364        7.6049660929        7.5280719137
  H        10.1548335757        6.7463490781        5.2891115727
  C        12.6394144878        6.7945347339        1.0320146949
  C        13.6217060409        6.0603639442        0.3321066571
  C        14.7517861504        5.5452572000        1.0876962543
  C        14.7843014684        5.6258502237        2.5367500402
  C        13.6824481935        6.1628528106        3.2204016652
  C        10.4465823587        8.0114851341        0.9791619104
  C        11.6158876391        7.4760155721        0.3359205449
  C        11.7958691419        7.9973161217       -1.0949174382
  C        12.7360826904        8.9898625371       -1.3386207930
  C        12.9054942502        9.5811204801       -2.6100593195
  C        11.9952356068        9.1955851427       -3.6647896890
  C        11.0600679755        8.1962141181       -3.4407817310
  C        10.9230377939        7.6196402634       -2.1628649328
  H        10.2074751955        6.8373489638       -1.9683371947
  H        10.2892600660        7.9184227223       -4.2359503097
  H        12.0617041729        9.7904957738       -4.5920871554
  H        13.5394096474       10.4646585128       -2.6595699961
  H        13.5461783415        9.1950716349       -0.6381720798
  C         9.4186229956        8.6267055028        0.2302610625
  C         8.2577281584        9.0676690806        0.8368558287
  H         7.4202080790        9.5868749904        0.3357096675
  H         9.4657360702        8.7943269495       -0.8131164622
  C        13.6873304802        5.8770482579        4.7010317489
  C        12.8968497477        4.8464054068        5.2855885671
  C        12.9934649408        4.5622708838        6.6589766967
  C        13.8698843901        5.3180216734        7.4857655617
  C        14.7192390160        6.2598018888        6.8674813365
  C        14.6080175759        6.6067329381        5.4578050206
  H        15.2463978622        7.3550009054        4.9810804544
  H        15.3546631810        6.8694708561        7.5552670347
  H        13.9191077237        5.2515632104        8.5819765614
  H        12.4684893671        3.6563263336        7.0488309477
  H        12.1561158493        4.3185408581        4.6610904728
  C        15.9526251155        5.1107206544        3.2431830295
  C        16.9645099056        4.5135194394        2.4732398886
  C        16.9068481457        4.4194338402        1.0724178883
  C        15.8377515108        4.8864369334        0.3565637073
  H        15.8506787680        4.7961305200       -0.7024365240
  H        17.6627226061        3.8379448551        0.5856452440
  H        17.8717356479        4.0712075438        2.8531524691
  H        16.0915417471        5.1718200698        4.2967762615
  C        13.5175701078        5.6868608990       -1.1259892550
  C        12.5104342187        4.8149096633       -1.6451497850
  C        12.5018919514        4.4957207676       -3.0280113974
  C        13.3838696919        5.1303417731       -3.9512175106
  C        14.3605369749        6.0291121284       -3.4053759152
  C        14.3614791724        6.2887897819       -2.0608352331
  H        15.1878756294        7.0083617276       -1.7096346724
  H        15.0463185606        6.5596665752       -4.1360626271
  H        13.4113638796        4.8052053213       -4.9986961922
  H        11.7414502140        3.7389449506       -3.3489364429
  H        11.8758847804        4.2036288664       -1.0151834266
