140

  C         3.3345602316        0.0125486846       14.5008019008
  C         4.3946770476        0.6775131183       15.1749619924
  C         5.5078910875        1.2017846141       14.4655202164
  C         6.5650183641        1.8361684580       15.1833045496
  C         7.5329687321        2.5287412990       14.5427420658
  C         4.5246781518        1.0009740137       16.6503509241
  C         3.8580675433        2.0829319105       17.1918849242
  C         4.0378403267        2.3750346658       18.5384963006
  C         4.8919690621        1.5539150865       19.2798399539
  C         5.5008681554        0.3952438139       18.7937063733
  C         5.2922881207        0.0760293920       17.4421973182
  H         6.7259230266        1.7500547337       16.2619007935
  H         8.4029368417        2.9467623461       15.0226184877
  H         3.1515058726        2.6885707674       16.5999168514
  H         3.6292669088        3.2255782712       19.0545940207
  H         5.0773224896        1.7377388877       20.3578997570
  H         5.9580648005       -0.2991992087       19.4844307028
  H         5.7852999384       -0.7466243862       16.9311170746
  C         3.2943388557        0.1291242022       13.0282422561
  C         2.2902280196       -0.5849314745       12.2932720844
  C         1.2112253473       -1.1649645596       12.9742437506
  C         1.2718190397       -1.1918240580       14.5018730116
  C         2.3518656056       -0.6832282684       15.2239709103
  C         5.4720040994        1.2809433828       13.0407294740
  C         4.4144438781        0.6775303442       12.3129241034
  C         4.2625954405        1.0870989828       10.8400605171
  C         3.5471092322        2.2584484051       10.4599166157
  C         3.6184706180        2.7220484744        9.1029205885
  C         4.4191549665        2.0353409255        8.1611131764
  C         5.1966238660        0.9220071070        8.4863382396
  C         4.9923406386        0.4140223740        9.8270475649
  H         5.5033064285       -0.4396523292       10.2292422378
  H         5.7525651810        0.4159681229        7.6420030429
  H         4.4839441794        2.4961937558        7.1740980334
  H         3.0512596582        3.6032191914        8.7797425913
  H         2.9077340281        2.8297049474       11.1421689243
  C         6.4940900148        1.9597485203       12.3900233980
  C         7.4290410265        2.5873984028       13.1261933804
  H         8.2137632563        3.0281017922       12.5205924516
  H         6.4526042040        2.0964995668       11.3078222417
  C         2.4068753734       -1.0842067251       16.6664794487
  C         2.9170072949       -2.3915337382       16.9146515137
  C         2.8807790983       -2.8762091924       18.2242191056
  C         2.2982283426       -2.0485105076       19.2354923515
  C         1.7935663688       -0.8236742549       18.9500171949
  C         1.7806000270       -0.2816608360       17.6303689692
  H         1.3249796625        0.6505342428       17.4734682366
  H         1.3233788206       -0.2851811959       19.7308748782
  H         2.2593803482       -2.3844941465       20.2939248319
  H         3.3677847067       -3.8089747149       18.5890022345
  H         3.3684520569       -2.7816586366       16.0382118114
  C         0.2236604768       -1.8858870265       15.1310859036
  C        -0.9271891750       -2.4116352434       14.5321283069
  C        -0.9081506876       -2.4405424993       13.0675431222
  C         0.0971243996       -1.7840644629       12.3531625575
  H         0.0539619967       -1.7728079668       11.2660546645
  H        -1.7069203215       -2.9602094916       12.5477743364
  H        -1.5529846877       -3.1272751149       15.0114580061
  H         0.2321957490       -1.9492667358       16.1764521286
  C         2.3215294226       -0.8261658364       10.7283447811
  C         3.0500446095       -1.9439159541       10.1699522916
  C         2.9348846166       -2.2006165632        8.7829499676
  C         2.0239755195       -1.5305044863        7.9835674315
  C         1.2909829575       -0.4845203128        8.4826528056
  C         1.4511151580       -0.1741756076        9.8483417826
  H         0.7938037529        0.5623829410       10.3576971257
  H         0.5909909142        0.1229471614        7.8584386623
  H         1.7862156061       -1.8130675085        6.9607069764
  H         3.4876324951       -2.9799645222        8.3000496579
  H         3.6484945749       -2.5027464464       10.8476909549
  C        -0.4447435624        7.1990752076       14.4031895863
  C        -1.4549833059        7.9749091983       15.0838543751
  C        -2.5856043616        8.4824313796       14.2921669782
  C        -3.6731015721        9.1631377309       14.9208043092
  C        -4.6540634165        9.8796800693       14.2395364810
  C        -1.3603417726        8.3093160518       16.5493639502
  C        -0.5603457330        9.3599429363       16.9150712816
  C        -0.4940655373        9.8366333273       18.2256604020
  C        -1.3101997787        9.2900754126       19.2627042290
  C        -2.0509341520        8.2082413417       18.8953902404
  C        -2.1730659907        7.7364942567       17.5742149070
  H        -3.6545485219        9.2611953725       15.9957083594
  H        -5.3949943801       10.5119788833       14.6877983335
  H         0.0358125589        9.8257431130       16.1160257482
  H         0.2300511668       10.6271259443       18.5176183992
  H        -1.2127388990        9.6706150315       20.2792221190
  H        -2.6831093995        7.7468058488       19.6371845413
  H        -2.9477711672        6.9530038735       17.4474848536
  C        -0.4351636699        7.1370837749       12.9059688930
  C         0.6755232145        6.4803054309       12.2746298669
  C         1.7722744253        5.9897665974       13.0767418700
  C         1.6840177907        5.9958789866       14.5565158381
  C         0.5838009529        6.5659050910       15.2323227664
  C        -2.5530923373        8.4482624502       12.8160487373
  C        -1.4876510695        7.8212975185       12.1493986166
  C        -1.4364476978        8.0923063428       10.6353715195
  C        -0.8811996895        9.3627890617       10.2907311896
  C        -0.9838413964        9.8524631192        8.9776542512
  C        -1.5686187992        9.1170195005        7.9261080543
  C        -2.1348950821        7.9247433990        8.2524949207
  C        -2.1253017603        7.4072808999        9.5813819588
  H        -2.5283873238        6.4071715104        9.8096443829
  H        -2.6292093181        7.4019890549        7.4335762167
  H        -1.6761671675        9.5106266202        6.9129408164
  H        -0.5850706422       10.8375742653        8.8303464148
  H        -0.4558693565        9.9923401234       11.0555316860
  C        -3.7324252770        8.9305078643       12.1481760091
  C        -4.7045218863        9.6263849633       12.8371800784
  H        -5.4734484010       10.1501953576       12.2562905336
  H        -3.8066205794        8.8420023415       11.0808917766
  C         0.5306544249        6.3346367647       16.7679507890
  C        -0.1928163490        5.2564095022       17.2416597565
  C        -0.1253118832        4.8773499421       18.6004010808
  C         0.8694162040        5.4590818488       19.4471774776
  C         1.6900524515        6.5122166775       18.9512006551
  C         1.4759554440        6.9255690454       17.6225170988
  H         2.0633476414        7.7293355544       17.2047197053
  H         2.2780823001        7.1752871291       19.5867864518
  H         0.9315290974        5.1640030158       20.5173595515
  H        -0.9177306520        4.2414901374       19.0449007801
  H        -0.8487253183        4.7456362424       16.5664418782
  C         2.7288970428        5.3841260296       15.3226133979
  C         3.6884461175        4.6944523139       14.6068601882
  C         3.8812993985        4.7417219535       13.2148152642
  C         2.9986224376        5.4721544264       12.4225524668
  H         3.1320703158        5.4949517751       11.3447444927
  H         4.7870268079        4.3083860447       12.7905449071
  H         4.4228520069        4.1967355510       15.2770161184
  H         2.8182694798        5.3382562046       16.4116639939
  C         0.6346788829        6.1550222433       10.8499968078
  C        -0.0401071119        5.0378711844       10.3485079140
  C         0.1445543006        4.5957574974        9.0003616382
  C         0.8588851507        5.3644656494        8.0873248535
  C         1.4878943493        6.5368361024        8.5847659419
  C         1.3692990680        6.9407052104        9.9292374930
  H         1.8513422919        7.8473859332       10.3119469994
  H         2.1838942770        7.0345448551        7.9323702141
  H         1.0360439024        4.9837206688        7.0762424008
  H        -0.3476568562        3.6299752313        8.6681946933
  H        -0.4506317681        4.3350345825       11.0726467823
