140

  C         3.6607319410       -0.3104272151       13.9998245240
  C         4.7126034954        0.3493192206       14.6847783824
  C         5.9018931166        0.7344137032       14.0374469808
  C         6.9279383041        1.4297537980       14.7418359955
  C         8.0405946733        2.0210585158       14.1773964839
  C         4.7420536352        0.5955419484       16.1584364233
  C         3.9573311931        1.6328097468       16.6186166648
  C         4.0179222591        2.0250147414       17.9618009522
  C         4.8500517757        1.3597494599       18.8446485591
  C         5.5843268452        0.2692531344       18.3801133357
  C         5.5004227956       -0.1603181572       17.0388937089
  H         6.8598736874        1.5081364747       15.8183821137
  H         8.6895902449        2.6009686109       14.8895136624
  H         3.3183437908        2.1200305771       15.9508321768
  H         3.2899264319        2.7494269738       18.2423216015
  H         4.9493502562        1.8442374129       19.8038218650
  H         6.2722184317       -0.2698320772       19.0952679758
  H         6.0244954897       -1.0269353589       16.7252808921
  C         3.6978625615       -0.3131773858       12.5167007747
  C         2.7207108759       -0.9814107978       11.7531286990
  C         1.6804143489       -1.6859950962       12.4284632536
  C         1.5629254952       -1.6080423213       13.8996719737
  C         2.6623983588       -1.1433116461       14.6253095529
  C         6.0547211458        0.6532692977       12.5843120024
  C         4.8821432204        0.2869946576       11.8359630627
  C         4.9142242484        0.5902311745       10.4188055637
  C         4.0858733096        1.6185576058        9.8456425378
  C         4.2327447238        2.0312345240        8.5433093269
  C         5.1448950448        1.3310007169        7.6999245975
  C         5.9042986295        0.3619565737        8.3155314701
  C         5.8668675510        0.0117431197        9.6267855678
  H         6.6331084220       -0.6509035126       10.0831223753
  H         6.5633149973       -0.1824278703        7.6335321320
  H         5.3113784365        1.5396378799        6.6431994683
  H         3.7658846770        2.9807775477        8.2965099424
  H         3.4307290341        2.1414217503       10.4837899835
  C         7.3083108615        1.2308737696       12.0207014229
  C         8.3173101756        1.8687502180       12.7389028610
  H         9.1478196288        2.4698606700       12.2997156034
  H         7.4144860102        1.1398276697       10.9443936210
  C         2.8291119462       -1.6154381400       16.0854764027
  C         3.3819237478       -2.8665144730       16.4122321014
  C         3.5546518532       -3.1797017320       17.7970203931
  C         2.9133496355       -2.4303155040       18.7592976959
  C         2.1226446762       -1.3427552415       18.3095589444
  C         2.1843431373       -0.8588110595       17.0489869130
  H         1.7291804558        0.0114741447       16.7149325312
  H         1.5618442292       -0.7833846693       19.0085143763
  H         2.9397698509       -2.7200093440       19.8224936935
  H         4.1546224767       -4.0848156574       18.0265110415
  H         3.6476462628       -3.6057572974       15.6798400556
  C         0.5081427789       -2.3902802534       14.4759136370
  C        -0.3709126708       -3.1310055225       13.6738098155
  C        -0.1890950270       -3.2936792892       12.3015720999
  C         0.8035122285       -2.5487071078       11.7150581683
  H         0.9910949516       -2.7206453965       10.6727083895
  H        -0.7795989640       -4.0330888563       11.7149967568
  H        -1.1177831004       -3.6025566750       14.1994038671
  H         0.3934618594       -2.2366698492       15.5130253956
  C         2.9957411741       -1.5177707915       10.3577942304
  C         3.9115775587       -2.5415890897       10.0082859153
  C         4.0758607461       -3.0828261879        8.7624857131
  C         3.2357765115       -2.6666407859        7.7020564273
  C         2.2315095494       -1.6966112453        8.0113609822
  C         2.1118334878       -1.1237358828        9.2768133791
  H         1.4512350688       -0.3143369479        9.5572739385
  H         1.5103180568       -1.4286952293        7.2239545353
  H         3.1951562571       -3.3330247039        6.8018767906
  H         4.7885128716       -3.8965882857        8.7219397937
  H         4.4146107591       -3.0306801527       10.8598048552
  C         0.5393634348        6.7021995983       14.1438242871
  C        -0.4451187789        7.4695197526       14.8154519927
  C        -1.6101654799        7.8421323909       14.1274117414
  C        -2.7573747232        8.4602909329       14.7561973274
  C        -3.8218224764        8.9221130221       14.0257702361
  C        -0.4131609484        7.8158087721       16.2586776700
  C         0.2930919860        8.9660039095       16.6247654155
  C         0.2697409559        9.4908048141       17.9584709837
  C        -0.4906332633        8.7469862676       18.9082924212
  C        -1.2619630668        7.6170907690       18.4825418283
  C        -1.2055672273        7.1542501297       17.1748716048
  H        -2.8145633972        8.6416503099       15.8083564097
  H        -4.6685112001        9.2952330199       14.6088090516
  H         0.7551938695        9.5647888159       15.8113818025
  H         0.6819487844       10.4928198814       18.1973688384
  H        -0.3474411255        8.9266686641       20.0039093464
  H        -1.8147936358        7.0593619001       19.2754121383
  H        -1.8347267308        6.3743691652       16.8365525474
  C         0.5339564129        6.6046779021       12.6832597997
  C         1.5215868908        5.8454964396       12.0046409676
  C         2.5888629997        5.2300766734       12.7161817639
  C         2.4907269875        5.2396819185       14.1783246636
  C         1.5126479895        5.9556776502       14.8796394297
  C        -1.6803305870        7.6853685881       12.6723891183
  C        -0.4876035515        7.2248794890       11.9710262924
  C        -0.5995163456        7.4209725813       10.4880487674
  C         0.0656615539        8.5215200350        9.8863995526
  C        -0.2276605479        8.8867819491        8.5838141733
  C        -1.0809817824        8.1078269297        7.7901299490
  C        -1.7020207962        6.9601494373        8.3606132422
  C        -1.4433625442        6.6658735064        9.6649726668
  H        -1.9414064568        5.8473368937       10.1299085012
  H        -2.2806228381        6.2771948351        7.7151610553
  H        -1.1681572375        8.3603042289        6.7669787030
  H         0.2892886738        9.7286087906        8.1583759102
  H         0.7851083823        9.1065343912       10.4660443946
  C        -2.8598650366        8.0587370309       11.8811885280
  C        -3.8594264659        8.7150101446       12.6133881535
  H        -4.6805747129        9.2099898385       12.0702421027
  H        -2.9556310820        7.9857253725       10.7901588376
  C         1.4914520249        5.6794996617       16.3456725611
  C         0.7868973208        4.5868343745       16.8670871276
  C         0.7835635510        4.2570199844       18.2066002497
  C         1.5764728155        5.0258403989       19.0683223539
  C         2.3766890698        6.0816994236       18.5477204641
  C         2.2744179133        6.4386936797       17.1768574292
  H         2.7862780051        7.2913263826       16.8048571862
  H         3.0877821198        6.5953947528       19.2049703697
  H         1.5623139523        4.7991658480       20.1296989936
  H         0.2099945436        3.3850781526       18.6262083299
  H         0.2164195557        3.9264832346       16.1757816674
  C         3.6039641427        4.5933264020       14.8077535687
  C         4.6536400961        3.9493949064       14.1883893434
  C         4.7771495479        4.0774329845       12.7829229525
  C         3.7620543625        4.6651795799       12.0763788487
  H         3.8663950825        4.8515193907       10.9905423823
  H         5.5966430956        3.5335642713       12.2851393713
  H         5.3550873348        3.3191222922       14.7796611104
  H         3.6401752101        4.6775918348       15.8894614023
  C         1.3945650701        5.4501545188       10.5534012028
  C         0.6814975386        4.3644649070       10.0564755195
  C         0.8776711514        4.0051595907        8.7548975471
  C         1.8872615170        4.6351752641        7.9418704187
  C         2.5883397076        5.7585193874        8.4389858731
  C         2.2506698218        6.1966866791        9.7311748420
  H         2.8153532658        6.9904017447       10.2442098451
  H         3.2656640858        6.4068285316        7.8668138959
  H         2.0446232145        4.2170150415        6.9401243971
  H         0.2074610615        3.1783579733        8.3705281036
  H        -0.0790855918        3.8848840826       10.6933295745
