140

  C        15.5144822661       -1.2272632232        0.4434290943
  C        16.5639224502       -0.5810912770        1.1597487279
  C        17.6562746571        0.0238104208        0.5439192459
  C        18.6889342103        0.8023061919        1.2462769476
  C        19.6710196355        1.4639730659        0.5848140532
  C        16.4447783342       -0.3602851763        2.6673770093
  C        15.7852232136        0.7762172019        3.1327847358
  C        15.8145421708        1.0889851963        4.4502004821
  C        16.5505255532        0.3079199876        5.3308066747
  C        17.2736228069       -0.8206417026        4.8567900844
  C        17.2488219404       -1.1204635758        3.5122572669
  H        18.5214785250        0.9331539885        2.3105846672
  H        20.4091067615        2.1296161129        1.0814709894
  H        15.1049148769        1.3405625367        2.3957745411
  H        15.2924651996        2.0056279261        4.7811725591
  H        16.6193234137        0.4720645025        6.4060900530
  H        17.8890247552       -1.4326495029        5.6122170527
  H        17.7628357129       -2.0146519819        3.0985481150
  C        15.5916156045       -1.2928807313       -1.0290114183
  C        14.6011607165       -1.9856035803       -1.7275922789
  C        13.5976130785       -2.6839529735       -1.0285777046
  C        13.4262910774       -2.5740909262        0.4505451837
  C        14.4458852990       -1.8308104316        1.1642448951
  C        17.6941048127        0.0127883186       -0.8872693330
  C        16.6432449017       -0.5788301630       -1.6623557671
  C        16.6636470954       -0.1810311540       -3.0820610759
  C        15.9319922208        1.0116638228       -3.2985880171
  C        15.8702110306        1.5975089864       -4.5949743777
  C        16.5981765609        0.9312365072       -5.6191110919
  C        17.3811767908       -0.2024532101       -5.3676965936
  C        17.4400722782       -0.7933224762       -4.0892935886
  H        18.1124665615       -1.6408201317       -3.9288189467
  H        17.8311999877       -0.7035579163       -6.1716666492
  H        16.6018831544        1.3428819687       -6.6084705558
  H        15.1874717907        2.3603794028       -4.8768012825
  H        15.4234940279        1.4171797150       -2.4176083776
  C        18.7794994363        0.7136166084       -1.5515727541
  C        19.7454908626        1.3920892917       -0.8626772737
  H        20.5002096257        1.8734479673       -1.4005698059
  H        18.8323108081        0.6958061089       -2.5954728524
  C        14.5578784027       -2.2569375981        2.5905739358
  C        15.4435849362       -3.3712812727        2.8156004800
  C        15.4800109297       -3.9817967792        4.0805267522
  C        14.6479214434       -3.3744846040        5.1008991994
  C        13.8102308966       -2.3224447920        4.9004082351
  C        13.7253141967       -1.8364029035        3.6570994678
  H        13.1416639694       -0.9234659670        3.4152967854
  H        13.2322102694       -1.9820634136        5.7588586630
  H        14.7061544124       -3.8933550044        6.1010099941
  H        15.9595628559       -4.9208387594        4.2330321723
  H        16.0478749088       -3.7959491971        1.9889497657
  C        12.3604519396       -3.0724490582        1.1100865617
  C        11.3341898176       -3.7033837510        0.3781933640
  C        11.4946850557       -3.8642424558       -0.9982537463
  C        12.6265241953       -3.4423285387       -1.6352061756
  H        12.6658996298       -3.5248467345       -2.6911817838
  H        10.7952382570       -4.4796807674       -1.6034269255
  H        10.4245181502       -4.0981360746        0.8367272006
  H        12.3357550248       -2.9990091619        2.2001769644
  C        14.6749884320       -2.4057263586       -3.2244227893
  C        15.5332739866       -3.5138977294       -3.5164822847
  C        15.5608560435       -4.0193523399       -4.7899291947
  C        14.4988739524       -3.6404144924       -5.7171112098
  C        13.7020880351       -2.5181511670       -5.4516550709
  C        13.7872072341       -1.8853410044       -4.1557957739
  H        13.2751976416       -0.9447472254       -3.9380372666
  H        13.0697193917       -2.0963221874       -6.1889853493
  H        14.4772467915       -4.0117264546       -6.7180867621
  H        16.2567614467       -4.7726601905       -5.1130929734
  H        16.3551906796       -3.7726425610       -2.8015886656
  C        12.1562109691        5.7594266626        0.4963088892
  C        11.2283240014        6.5675237783        1.2429610082
  C        10.0969112138        7.0247448786        0.5593949838
  C         9.1794596094        7.8824726967        1.2876124810
  C         8.2029426445        8.5469446117        0.5817610263
  C        11.2269322934        6.9480477359        2.6928067253
  C        12.0367583645        7.9835618859        3.1365504137
  C        11.8539881577        8.5488082879        4.3797320192
  C        10.9190504816        8.1204457653        5.2852557048
  C        10.1048829517        6.9600787345        4.9137576201
  C        10.2268201336        6.4502786647        3.6108465924
  H         9.1064317321        7.9612180787        2.3295209346
  H         7.4730595703        9.1788283164        1.1780813014
  H        12.9415232782        8.0207406545        2.5305260625
  H        12.5041243229        9.4282219205        4.6433856864
  H        10.7960766533        8.7014200805        6.3265115886
  H         9.2921669702        6.7235062776        5.6238034670
  H         9.4691360830        5.6954098034        3.3292194358
  C        12.1566302885        5.8136523396       -0.9630556139
  C        13.2232323621        5.2183397848       -1.6773623227
  C        14.3006620202        4.7431139303       -1.0052824209
  C        14.3124665770        4.6579981054        0.4448680540
  C        13.2349374363        5.1275108969        1.1792648424
  C        10.0228781956        6.9971720616       -0.9307533986
  C        11.0736054486        6.4324113894       -1.6214204961
  C        11.1570090610        6.7327523397       -3.0901035353
  C        11.9593138566        7.8352908116       -3.4826555602
  C        11.9668667148        8.3498862264       -4.7549449040
  C        11.2170403567        7.7703220894       -5.7432868214
  C        10.3482970283        6.7609111287       -5.3505836540
  C        10.3505189940        6.1865494579       -4.1223786965
  H         9.6830125073        5.3561645897       -3.8692120365
  H         9.7208509857        6.3531750931       -6.1930198457
  H        11.1403377788        8.2127790834       -6.7707400026
  H        12.5501258039        9.2380305984       -5.0085516106
  H        12.4759285428        8.4472528398       -2.6813065365
  C         8.9411728699        7.6727616975       -1.5497619334
  C         8.0851601961        8.4486951210       -0.8557931247
  H         7.1451660037        8.8297423664       -1.2261535050
  H         8.8457757465        7.6995175169       -2.6098419822
  C        13.1865048698        4.8914636568        2.6543346920
  C        12.3232831592        3.9334088519        3.2094431579
  C        12.4523567194        3.4347944169        4.5393824702
  C        13.4315020814        4.0199875856        5.3697396857
  C        14.3208065239        5.0049594061        4.8606727462
  C        14.1947507405        5.4556825269        3.5861019372
  H        14.7763559648        6.2670424006        3.1242371403
  H        15.0848719891        5.4473006463        5.4320602065
  H        13.5523983394        3.5374819796        6.3732449882
  H        11.7488403464        2.6366611710        4.9405740056
  H        11.6377116413        3.4402428952        2.4815002271
  C        15.4212816542        4.0311281394        1.0812826846
  C        16.5266605834        3.5129407976        0.4040464460
  C        16.5188278524        3.6007482944       -1.0224787025
  C        15.4263777556        4.1417565330       -1.7145242552
  H        15.4270972543        4.0979938094       -2.8147348980
  H        17.3498674124        3.1111315898       -1.5768810568
  H        17.3431433238        3.0376398922        0.9465503091
  H        15.3367284469        3.8150457475        2.2129263518
  C        13.1766871251        4.9706675434       -3.1474880183
  C        12.6018661539        3.8018798320       -3.6203804346
  C        12.6316465855        3.4111926268       -4.9834265430
  C        13.3050611699        4.1596402191       -5.9190653197
  C        14.0045896155        5.2615133988       -5.4110678267
  C        13.9300430307        5.7097410576       -4.1189792102
  H        14.4935022398        6.5415316341       -3.8202049408
  H        14.6951370131        5.8428142377       -6.0334374678
  H        13.3340473784        3.8467089179       -6.9254382516
  H        12.1954657249        2.4176087808       -5.1941967217
  H        12.0912387818        3.2245538799       -2.9085315386
