140

  C        11.7793507750        1.2311882302        1.4774001129
  C        12.8001803318        1.9750640253        2.1389192538
  C        13.9104064141        2.4702374839        1.4964753629
  C        15.0047852052        3.1431260982        2.2310255039
  C        16.0035482372        3.8012201019        1.4735292537
  C        12.5913490859        2.3890595124        3.6558158144
  C        11.8766912219        3.5805668859        3.9182272738
  C        12.0426244847        4.1865715490        5.1898200846
  C        12.7680373318        3.5627056115        6.2137542145
  C        13.5258413507        2.4401308764        5.9075487256
  C        13.3755627035        1.7946827039        4.6619166239
  H        15.0502575162        3.1394943185        3.3090208491
  H        16.7159782704        4.4798281669        2.0235353760
  H        11.2719381855        4.0456700693        3.1847899204
  H        11.4956088570        5.1367101341        5.4446412240
  H        12.8458808407        4.0850438739        7.1363239617
  H        14.1748430770        2.0742048141        6.7180732859
  H        13.9386935519        0.9036424755        4.4069290978
  C        11.8585215865        1.0636073723        0.0225822791
  C        10.8816361237        0.4288375332       -0.7248980541
  C         9.7629357315       -0.1012317112       -0.0395987319
  C         9.5848843395        0.0988785371        1.3960025427
  C        10.7060820144        0.5802699094        2.1773810803
  C        13.9200307016        2.3418735101        0.0459595601
  C        12.9154768261        1.6940557053       -0.6762395946
  C        12.8010629457        2.0890929752       -2.1341920648
  C        12.0512139801        3.2733557339       -2.4052781105
  C        12.0436415023        3.7899133659       -3.7033198307
  C        12.6958405115        3.0455466687       -4.7048569729
  C        13.5149793640        1.9518701300       -4.4425707892
  C        13.5915040923        1.4770755778       -3.1325443756
  H        14.0315814366        0.4962022759       -2.8778870950
  H        14.0648653135        1.3659049078       -5.2323669398
  H        12.5567062038        3.3674532791       -5.7601083891
  H        11.4109877800        4.6446880430       -3.9571363310
  H        11.5079932854        3.7933806004       -1.5873224108
  C        14.9519533104        3.1618680396       -0.5920834855
  C        15.8665519538        3.9041264167        0.0749592860
  H        16.5143359846        4.5942121524       -0.4866016791
  H        14.9273521020        3.1569296618       -1.6806090955
  C        10.6492594302        0.4054108883        3.6364652492
  C        11.4554233743       -0.5896080659        4.2562113981
  C        11.2679725022       -1.0084355917        5.5412847744
  C        10.3542283474       -0.3027633733        6.3040732502
  C         9.4763736055        0.6713754042        5.7345033753
  C         9.6993553941        1.0751088370        4.4149162481
  H         9.1243836453        1.8006605420        3.8969950783
  H         8.7329404102        1.2808798452        6.1935271859
  H        10.3473921987       -0.5546344052        7.4023146159
  H        11.9590858786       -1.7868683364        5.9737517680
  H        12.2274984372       -1.0439478676        3.5649096329
  C         8.5560711197       -0.6618874025        2.0658162617
  C         7.5540031833       -1.2663558333        1.3890306914
  C         7.6186383779       -1.3598175913        0.0444738561
  C         8.7010995928       -0.8489310160       -0.6758776709
  H         8.8126933803       -1.0652946435       -1.7373774439
  H         6.8843340541       -1.9815543600       -0.4602594802
  H         6.7559826436       -1.7559956056        1.9821781538
  H         8.5302811031       -0.5056674562        3.1371229788
  C        10.8723886883        0.1513157901       -2.2078678993
  C        11.4949733192       -1.0134415167       -2.7390565468
  C        11.4631063120       -1.2787993593       -4.1265941705
  C        10.6610829339       -0.4462698120       -4.9662554553
  C         9.9838555004        0.6784515268       -4.4307681893
  C        10.1104442699        0.9548308241       -3.0333574878
  H         9.6110788360        1.8953513009       -2.6784522636
  H         9.4338008845        1.3912606014       -5.1118991768
  H        10.5210623506       -0.6290157017       -6.0430273049
  H        11.9569082797       -2.1580088507       -4.5474099870
  H        12.1529689647       -1.6355098373       -2.1415429849
  C         8.2243751526        8.4606925692        1.4051935564
  C         7.1334865523        9.0188325754        2.1481452932
  C         6.0105714400        9.5526396713        1.4489670266
  C         4.9624893788       10.2415194836        2.1930528882
  C         3.8631005072       10.7758781085        1.5699928511
  C         7.2317756209        9.3565904317        3.6417185055
  C         7.9772762406       10.5257588193        3.9410206432
  C         8.0422315487       11.0858395997        5.2122191562
  C         7.4231986731       10.3692630485        6.2464771862
  C         6.7000369992        9.2238940045        6.0024709247
  C         6.5745931295        8.6929898518        4.7337687264
  H         5.1029389286       10.3822913121        3.2526088409
  H         3.1506681078       11.2921855259        2.1658108535
  H         8.5138806470       11.0368142062        3.1635722888
  H         8.6569215172       11.9759963179        5.4210062270
  H         7.4981649529       10.6978062523        7.3294737764
  H         6.2505089538        8.7045362709        6.8511227907
  H         6.0463195506        7.7281194112        4.6369837317
  C         8.1498105006        8.5390196693       -0.1046455978
  C         9.2161225923        7.8928784324       -0.8455547503
  C        10.2748749753        7.2684027556       -0.1621130064
  C        10.4400406942        7.3600018103        1.2862116667
  C         9.3382469419        7.8839385380        2.0475931312
  C         5.9304622332        9.5882686750       -0.0557480002
  C         7.0582023308        9.0992991719       -0.8119322862
  C         7.0695815166        9.4996978748       -2.2668547534
  C         7.9799667390       10.5381187873       -2.6251069154
  C         7.8842989209       10.9084137187       -4.0211864038
  C         7.1512036264       10.2912171661       -5.0063292772
  C         6.3691379419        9.2335604689       -4.5702894166
  C         6.3478124892        8.8497553240       -3.2672611245
  H         5.7303781356        8.0599857914       -2.9892765660
  H         5.7589525922        8.7487657603       -5.3140247339
  H         7.1505519211       10.5854413532       -6.0163951553
  H         8.5749804640       11.7070291764       -4.3326760316
  H         8.4941562429       11.2092934551       -1.9298674457
  C         4.7525416483       10.1952592035       -0.6675610800
  C         3.7812985537       10.7830359055        0.1297262518
  H         2.8971110377       11.2229481190       -0.3207296997
  H         4.6572867949       10.2606307841       -1.7425490582
  C         9.3065329846        7.5222099312        3.5032134116
  C         8.5195102530        6.3971326452        3.9561756309
  C         8.6662087117        5.9540802869        5.2552255439
  C         9.6057789821        6.6350265348        6.1112568764
  C        10.3114818706        7.6964210415        5.6780985337
  C        10.2179130558        8.1855398219        4.3723627439
  H        10.7849215632        9.0764010099        4.0338724118
  H        10.7807524073        8.2863685589        6.4548906157
  H         9.7479702962        6.2929034692        7.1215232668
  H         8.0432639639        5.0749136162        5.4796095099
  H         7.8486062508        5.8535133623        3.2834974895
  C        11.4867539652        6.5814698985        1.9148213047
  C        12.4601499944        5.9977270034        1.1887387023
  C        12.3451980871        5.9400906464       -0.2184712587
  C        11.2643166126        6.4960437486       -0.8871823345
  H        11.1967298108        6.3515616821       -1.9352758229
  H        13.1193072692        5.5494790584       -0.8962108304
  H        13.3015927827        5.5581266971        1.6641835690
  H        11.6269536417        6.6391857860        2.9942857395
  C         9.0659317691        7.6194326686       -2.2712630423
  C         8.3516949814        6.4199562729       -2.6184677360
  C         8.3959120915        5.8885355893       -3.8874388454
  C         9.1407103078        6.5372513635       -4.8992002605
  C         9.8874262561        7.6589952399       -4.5716053866
  C         9.8421657992        8.2381446530       -3.2487561471
  H        10.2889968193        9.2133664788       -3.0675926395
  H        10.4729453362        8.1283732009       -5.3306193486
  H         9.1909174369        6.1235421304       -5.8845938333
  H         7.8344338550        5.0057234756       -3.9810778717
  H         7.7663248864        5.9884071816       -1.8195055098
