140

  C         4.0864152921       -0.0342055622       14.1999849413
  C         5.1583509989        0.5406100474       14.9904612997
  C         6.3119713457        1.0800835555       14.3073435358
  C         7.3394625554        1.6718929687       15.0991286886
  C         8.4323509557        2.1533068561       14.5249922118
  C         5.0652952826        0.8737990740       16.4230611860
  C         4.3278070425        1.9778082892       16.8898836005
  C         4.4151361033        2.3199550365       18.2421575720
  C         5.2085905118        1.5607428859       19.1574503396
  C         5.9518866429        0.4853810576       18.6733352928
  C         5.9514103718        0.1948769495       17.3068741120
  H         7.1537321744        1.7548594685       16.1800062274
  H         9.1821357286        2.6967819892       15.1297991792
  H         3.6583922198        2.4634141797       16.1607247427
  H         4.0540305544        3.2793881891       18.5959669770
  H         5.0496038194        1.7383669980       20.2384725026
  H         6.4980026657       -0.0971235444       19.3491788065
  H         6.4683597668       -0.6131279534       16.8592438851
  C         4.2248487296       -0.1720045804       12.7416737503
  C         3.3306753297       -0.9959758707       12.0062511621
  C         2.1711561741       -1.5338307079       12.6377080116
  C         2.0986020439       -1.4972212116       14.1349941909
  C         3.1582031576       -0.8661125370       14.9421021005
  C         6.4785897023        0.9232138717       12.8616953848
  C         5.3343626594        0.5363559442       12.1175352491
  C         5.2839030423        0.8526831332       10.6353009396
  C         4.4184320693        1.7589245088       10.0689263580
  C         4.3490134094        1.9828338864        8.7247003694
  C         5.0989670153        1.1384938386        7.8783270575
  C         6.0508043092        0.2337282173        8.4235977793
  C         6.1661606206        0.1292854169        9.7953912720
  H         6.8158484698       -0.5995666801       10.2273067767
  H         6.6768822333       -0.2836103346        7.7047276925
  H         5.1020800332        1.3662666434        6.7998923112
  H         3.6926421958        2.7024263566        8.2680301419
  H         3.8179098553        2.3991766206       10.8103821847
  C         7.7424783869        1.5006499263       12.2761041262
  C         8.6913509725        2.0067507531       13.1597827145
  H         9.7318701684        2.3195454981       12.9075652998
  H         8.0143586674        1.3971313409       11.2391436575
  C         3.1552738766       -1.3426010248       16.3609523274
  C         4.0276370568       -2.3912081088       16.7273954580
  C         3.9608918681       -2.8356631718       18.0521335618
  C         2.9790781742       -2.2364136523       18.8835642117
  C         2.1660940255       -1.1378370334       18.5433063508
  C         2.3027418163       -0.6361810180       17.2561679348
  H         1.6605414046        0.1280745090       16.8505318489
  H         1.4285469426       -0.6352621788       19.1621968309
  H         2.8657740110       -2.4927426097       19.9908279503
  H         4.5725495161       -3.6427352500       18.3919599052
  H         4.7637536911       -2.8035141253       16.0472630941
  C         1.0210748805       -2.2097551380       14.7442337747
  C        -0.0311733269       -2.6823267074       14.0106205102
  C        -0.0592723113       -2.6034768268       12.6157792044
  C         1.1263937930       -2.2241380390       11.9481925745
  H         1.1232485875       -2.1636632176       10.8804410035
  H        -1.0081117584       -2.7922922408       12.2007277990
  H        -0.9259853810       -3.2922972199       14.3925674319
  H         0.8901666096       -2.2183619961       15.8574205213
  C         3.4344451813       -1.3676411906       10.5525861694
  C         4.0585756201       -2.6038141639       10.2755022248
  C         3.9435654451       -3.1669778651        9.0281252644
  C         3.0779315704       -2.5870080077        8.0575444554
  C         2.4703879423       -1.3664761483        8.3449669531
  C         2.7191616748       -0.6982602903        9.5438940170
  H         2.2752655954        0.2620870091        9.7865033636
  H         1.7327309593       -0.9058792630        7.6177202964
  H         2.8115974829       -3.1995375305        7.2216002369
  H         4.2843354964       -4.1586601034        8.8578762007
  H         4.6288445397       -2.9912272446       11.0976817824
  C         0.3978368044        6.8536883143       14.0972272353
  C        -0.5901519576        7.5858943050       14.8170837985
  C        -1.5867562168        8.1692910418       14.0834116117
  C        -2.7913577941        8.7238878837       14.7283134993
  C        -3.8017768706        9.3494804181       14.0703522936
  C        -0.5738186777        7.9052561715       16.2737868169
  C         0.2007983314        9.0298996321       16.6779243466
  C         0.1741712459        9.4911763630       18.0091743163
  C        -0.6166302321        8.8164998907       18.9511341165
  C        -1.3424870092        7.7073755225       18.5768488528
  C        -1.3110908983        7.2115710105       17.2480446780
  H        -2.8381958446        8.8170445623       15.8504257381
  H        -4.7372096751        9.6890882691       14.5433875900
  H         0.7230713406        9.6507441088       15.9111443821
  H         0.7740060006       10.2950397141       18.4049141788
  H        -0.6749885947        9.1916568648       19.9628550701
  H        -1.9292930830        7.2128798132       19.3712181636
  H        -1.9379967381        6.4151836732       16.9870047972
  C         0.4390951044        6.8217820028       12.5675772219
  C         1.5066380911        6.0950238001       12.0201238481
  C         2.5794020703        5.5482889766       12.7690470360
  C         2.5160976824        5.5802265032       14.2290137300
  C         1.3922463868        6.1719195801       14.8202947090
  C        -1.5765221713        8.1991564833       12.5991047260
  C        -0.5473668084        7.5551740956       11.8746108434
  C        -0.3816645768        7.8795634805       10.4073839003
  C         0.4079943104        9.0202423707       10.1896466747
  C         0.7075109916        9.4282632744        8.9140182513
  C         0.2567231508        8.7681264993        7.7875704770
  C        -0.6315828738        7.7073915595        7.9592973717
  C        -0.9244382898        7.2896525800        9.2975150456
  H        -1.5500523312        6.4476265101        9.4484301967
  H        -1.1327027507        7.0753809815        7.2110529166
  H         0.5137829508        9.1131477986        6.7860926939
  H         1.3051284164       10.3402475502        8.8047004407
  H         0.7365833679        9.5250732388       11.1446678022
  C        -2.6090781984        8.9974961066       11.9732192562
  C        -3.6707763279        9.5426083995       12.6318195911
  H        -4.3948951852       10.1007798199       12.0729330898
  H        -2.6199213668        8.9855599436       10.8825340372
  C         1.3655941813        5.9599715776       16.3213317274
  C         0.6990117454        4.8661833796       16.8605861412
  C         0.9862914098        4.3493395410       18.1346380545
  C         1.9364457092        4.9830354592       18.9097454610
  C         2.5562542462        6.1535165171       18.3889709946
  C         2.3042604750        6.6432050102       17.1110457043
  H         2.7793280580        7.4537304393       16.5500727236
  H         3.3473464302        6.6401141662       18.9664509869
  H         2.1801259912        4.5470922363       19.8672657736
  H         0.4607002930        3.4411704992       18.5160431955
  H        -0.0277199274        4.4015679571       16.2111301458
  C         3.6002282525        5.0035614635       15.0057549602
  C         4.6844747081        4.4206979598       14.3739243109
  C         4.7741028428        4.3783880105       12.9563333035
  C         3.7079046020        4.8209082967       12.1791318438
  H         3.7238998669        4.8658575520       11.1137248764
  H         5.7229808141        4.0764843603       12.3984647153
  H         5.5062038513        3.9263875640       14.9250845122
  H         3.5357664518        5.0106995457       16.0845068321
  C         1.5101197874        5.7281717461       10.5851043245
  C         0.7911900883        4.5856093088       10.1370567789
  C         0.8517632014        4.2118767068        8.7825702863
  C         1.5928037820        4.9282247608        7.8693159619
  C         2.3647858213        5.9983947237        8.2895270601
  C         2.2466836499        6.4470955191        9.6215859778
  H         2.6046289683        7.4824036241        9.8249222255
  H         3.0621293969        6.3841521341        7.5749193988
  H         1.6445401894        4.6783910711        6.7654921750
  H         0.2403182850        3.3799917948        8.5024988614
  H         0.1635873099        3.9690802189       10.8087278270
