140

  C         3.1937463792        0.0758400392       14.6403418894
  C         4.2896453824        0.7926024126       15.2326662161
  C         5.3656661508        1.3321514363       14.4198689293
  C         6.4655434222        2.1118924257       14.9571085334
  C         7.3164018315        2.8171057801       14.1939300336
  C         4.4224987830        1.0549417714       16.6128981175
  C         3.8054478269        2.2041008038       17.0360929632
  C         3.5740711482        2.4120221669       18.4175267901
  C         4.2347696580        1.5730337184       19.3424578106
  C         5.1232156993        0.5350418747       18.8814298272
  C         5.1369825275        0.2970449697       17.5067991351
  H         6.7271280018        2.0266404588       15.9564827035
  H         8.2121998873        3.3207656144       14.5590465807
  H         3.4269174295        2.8477553953       16.2316797468
  H         2.7684471485        3.0841739259       18.6772551862
  H         4.0436658039        1.7241225467       20.4186794755
  H         5.5360415531       -0.1538063820       19.5965511170
  H         5.6149150076       -0.6047056245       17.0942322739
  C         3.0521645204        0.0824754518       13.1895494487
  C         1.9510838434       -0.6020550404       12.5425154403
  C         0.9210469495       -1.1844456003       13.3876908491
  C         1.0885340577       -1.1386081351       14.8115973330
  C         2.2156252746       -0.5133800949       15.4612088933
  C         5.1561805397        1.5116652070       12.9901210458
  C         3.9841714888        0.8155898363       12.4026104998
  C         3.7701421016        1.1181349898       10.9942177447
  C         2.9022348977        2.2054322291       10.6694973273
  C         2.8848719493        2.7678208122        9.3938817083
  C         3.8404608886        2.3744529152        8.4391916498
  C         4.6759823806        1.2566928649        8.6732032107
  C         4.6426248622        0.6324825055        9.9755780378
  H         5.2166989541       -0.2896478961       10.2384371811
  H         5.4299553842        0.9436757971        7.9259903460
  H         3.9828736030        2.9470556338        7.5165935622
  H         2.2612517416        3.6655015655        9.1779418206
  H         2.4133096510        2.8039141166       11.4290904997
  C         6.0366862263        2.3055076347       12.2479399104
  C         7.1774498492        2.7668987373       12.8016326078
  H         7.8342245355        3.3265955758       12.1130380537
  H         5.7233875120        2.3948046389       11.1648945587
  C         2.4236339745       -0.9588374093       16.8595541912
  C         3.1968400842       -2.1246134618       17.0790863821
  C         3.1924219661       -2.7555481084       18.3129048654
  C         2.4902491134       -2.1483153092       19.3516771561
  C         1.7567806535       -0.9547991963       19.1232124674
  C         1.7280962477       -0.3496092667       17.8702623431
  H         1.1351847964        0.4926772074       17.6872372148
  H         1.2355947936       -0.5672498177       19.9825168701
  H         2.4245744434       -2.5770436749       20.3761923578
  H         3.7160785372       -3.7384419538       18.4435143397
  H         3.6291566690       -2.6797490145       16.2403829337
  C         0.1069109015       -1.7701782903       15.6864927693
  C        -1.0411548347       -2.2672276897       15.2208706582
  C        -1.2441537678       -2.3699066354       13.7857179053
  C        -0.2494806730       -1.9314591366       12.9449561083
  H        -0.4487165645       -1.9420271638       11.8737608332
  H        -2.0526533276       -2.9173471806       13.4280201377
  H        -1.7371071232       -2.7286991722       15.8559867272
  H         0.2199545893       -1.7569655772       16.7849713781
  C         2.0226875857       -1.0389982808       11.0615497999
  C         2.9005925463       -2.0254999998       10.7066352666
  C         3.0744769330       -2.2839923465        9.3488663474
  C         2.2977781648       -1.6392211741        8.3995256577
  C         1.3170513077       -0.7020179762        8.7740319819
  C         1.2679757018       -0.3415907830       10.1319627876
  H         0.5954259095        0.3793773972       10.4949604401
  H         0.7808738924       -0.2321883290        8.0016952864
  H         2.3553223299       -2.1195735202        7.3725132824
  H         3.8715025172       -2.9810200858        9.1034366401
  H         3.5232052876       -2.5789114821       11.4346031089
  C        -0.5791241724        7.4389464366       14.4364785145
  C        -1.5559757042        8.2066666427       15.2058576170
  C        -2.6295881116        8.8067182050       14.5106614555
  C        -3.7864393586        9.3196001480       15.1623335203
  C        -4.8665258326        9.7551779778       14.4601084981
  C        -1.5549218392        8.4869010387       16.6991129741
  C        -0.6569005304        9.4574280165       17.1909797713
  C        -0.6309342278        9.7738516434       18.5883618688
  C        -1.4699664234        9.0927124103       19.4525621463
  C        -2.2751224962        8.0744916854       18.9778444669
  C        -2.3815248864        7.7901145454       17.6015564004
  H        -3.7542953679        9.3802494228       16.2275191713
  H        -5.7476840747       10.0777657229       14.9888164159
  H         0.0133813005       10.0067987123       16.4944192555
  H         0.0166394787       10.5783259275       18.9706206189
  H        -1.4764038394        9.2448163548       20.5475460107
  H        -2.8148505126        7.4112749524       19.6924529864
  H        -2.9012150636        6.9064070244       17.2534056253
  C        -0.6463228435        7.3963865093       12.9524687328
  C         0.3802430999        6.5901244797       12.3350255364
  C         1.4917532336        6.0295148556       13.0314022790
  C         1.4569230335        5.9852051769       14.4634724976
  C         0.4009966024        6.6430335713       15.1420081421
  C        -2.6583950888        8.7746037765       13.0265787319
  C        -1.6238436779        8.2577705963       12.2541540066
  C        -1.4823970881        8.7024076714       10.8441331389
  C        -0.7289724494        9.8039782596       10.5925487090
  C        -0.4493149391       10.3370979497        9.3014921606
  C        -0.9598379743        9.6614602950        8.2170203245
  C        -1.9300970669        8.6280366827        8.4576185386
  C        -2.1380707469        8.1513129763        9.7544594991
  H        -2.9322467487        7.4080386650        9.9782674369
  H        -2.4435835329        8.1383334370        7.6608264629
  H        -0.8419731102       10.0723998980        7.2324941193
  H         0.2898756926       11.1428650351        9.2275594427
  H        -0.1088873898       10.2006357902       11.3653120092
  C        -3.7591666422        9.3761423779       12.3863463619
  C        -4.8401136880        9.8387790125       13.0884172674
  H        -5.6955718965       10.2974014731       12.5076345187
  H        -3.8165213410        9.3005200149       11.3390665577
  C         0.2746366842        6.2288648139       16.6287724480
  C        -0.6517123455        5.2522258040       17.1210907374
  C        -0.4693049037        4.6888270393       18.3746840651
  C         0.5309236672        5.1870624181       19.2466213403
  C         1.3482685258        6.1943232135       18.8158891969
  C         1.3145761625        6.6259729635       17.4704239423
  H         2.0026206900        7.4427705550       17.2016049837
  H         2.0262782933        6.6030873784       19.5300355098
  H         0.4660514616        4.7947150223       20.2566357988
  H        -1.1353018083        3.8876901526       18.7808440123
  H        -1.4719364309        4.8764096855       16.5511871704
  C         2.5916613147        5.4138256535       15.0918894237
  C         3.6926040539        4.8984573112       14.3705761542
  C         3.7053548629        4.9418971458       12.9790707972
  C         2.6334845888        5.4421319373       12.3191595472
  H         2.6353642229        5.5359493767       11.2401020655
  H         4.6076227837        4.5546241337       12.5171397553
  H         4.4551857146        4.4193561900       14.9623851899
  H         2.5635011084        5.3049525007       16.1792273172
  C         0.2054675431        6.1750885151       10.9010684564
  C        -0.7079766334        5.1351978976       10.6592069411
  C        -0.8897177031        4.7169289746        9.3263060938
  C        -0.0474795747        5.1011683514        8.3173964968
  C         0.9102356487        6.1310786692        8.5374552446
  C         1.0030335613        6.6641631480        9.8313808501
  H         1.8076840822        7.3780987309        9.9704904158
  H         1.6138849767        6.4402390663        7.7795325597
  H        -0.1738552851        4.7880384962        7.2877563561
  H        -1.5876789035        3.9429347002        9.0769646411
  H        -1.2693193353        4.6369062395       11.4348301745
