140

  C        13.2109610143        0.4892792613        1.1474790470
  C        14.3448186230        1.1063083230        1.8247185494
  C        15.4098964150        1.6516271684        1.0388147117
  C        16.5593037116        2.0922929278        1.6739431836
  C        17.6714995311        2.5208348666        1.0159586614
  C        14.2617259172        1.4749015899        3.2533858301
  C        13.3894210488        2.6089439725        3.5376122248
  C        13.3178418572        3.2715461927        4.7805955014
  C        14.0105944460        2.7137811163        5.8794609584
  C        14.8858370339        1.6357919483        5.6881595935
  C        14.9891759199        1.0461251552        4.3631261927
  H        16.6671380985        2.1371374754        2.7564499006
  H        18.6245260854        2.7377277238        1.5496248677
  H        12.7738954580        3.0006261169        2.6918764786
  H        12.6827520418        4.1196387233        4.9705458990
  H        13.8836289282        3.2955938914        6.8135076436
  H        15.5308883252        1.2686631191        6.5370140739
  H        15.6279551471        0.1851193383        4.3358854872
  C        13.2011352810        0.5280031899       -0.3447280899
  C        12.2408116229       -0.2763532084       -1.0053642011
  C        11.0979071159       -0.8373943123       -0.3258068309
  C        11.0947886528       -0.8161156005        1.1450696152
  C        12.1785789890       -0.2484197202        1.8765524545
  C        15.3293677662        1.7630967542       -0.3671590335
  C        14.1950053828        1.2441856615       -1.0793550623
  C        14.0919415117        1.5456317779       -2.5874108151
  C        13.2133465123        2.5781420419       -3.0006853736
  C        13.2813341026        2.9441738322       -4.3518551713
  C        14.1949364607        2.3220441382       -5.2281161644
  C        15.0086825895        1.2689757687       -4.7976857608
  C        14.9292376803        0.9189104018       -3.4866160640
  H        15.6105290504        0.1221288445       -3.1903591088
  H        15.7154900966        0.9065084811       -5.5184038663
  H        14.1251835890        2.5851610920       -6.2675720442
  H        12.6564155496        3.7538696624       -4.7302631258
  H        12.7133915463        3.2164047737       -2.2640206041
  C        16.3771563326        2.4797990717       -1.0233022081
  C        17.5463058544        2.8327692851       -0.3856335209
  H        18.3355655767        3.2868570552       -0.9129180742
  H        16.2866803054        2.6825051394       -2.1034482832
  C        12.2135440522       -0.5216829444        3.3410829194
  C        12.9306089915       -1.6361707584        3.7597523972
  C        13.0362922817       -1.9609779866        5.0762902090
  C        12.3932373695       -1.1929912938        6.0115501432
  C        11.6835419862       -0.0449163955        5.6602922208
  C        11.5267602505        0.3443720460        4.2566427421
  H        10.9539813832        1.1947434840        3.8632944992
  H        11.2401064478        0.6474501390        6.4031535239
  H        12.3504910011       -1.4579682132        7.0511339500
  H        13.6321812448       -2.8093299386        5.4071552963
  H        13.5684870827       -2.1810697277        2.9564934402
  C         9.9890571450       -1.4508912802        1.7852566288
  C         9.0304232960       -2.1360128887        1.0712001850
  C         9.0604621202       -2.1296212217       -0.3185079022
  C        10.0841167723       -1.5137279953       -0.9904103720
  H        10.1527924271       -1.6280742371       -2.1456138202
  H         8.2172824473       -2.6187226244       -0.7778384769
  H         8.2313383362       -2.6760818976        1.5461750696
  H         9.9332444910       -1.4131792911        2.8696494589
  C        12.3691856485       -0.5673797880       -2.5085184426
  C        13.2853899516       -1.5625492844       -2.7814277730
  C        13.4071842494       -2.0105426298       -4.1361492622
  C        12.5808445026       -1.4640055437       -5.1278939815
  C        11.5794849793       -0.5493242632       -4.8021814493
  C        11.4950879687        0.0273701397       -3.5087924217
  H        10.7514014143        0.7240219414       -3.2290305527
  H        10.9187522871       -0.2668455786       -5.5991988454
  H        12.5810676417       -1.8598226487       -6.1420570710
  H        14.1128896471       -2.7896229634       -4.3430567189
  H        13.9289529085       -1.9148819030       -1.9939645327
  C         9.5336952863        7.6399558904        1.3012144415
  C         8.4567172771        8.3268435543        1.9447953133
  C         7.2378676446        8.7114392235        1.2884574287
  C         6.2484252255        9.4317377401        2.0367431238
  C         5.1750918040       10.0969327213        1.3733015595
  C         8.6403997041        8.8111263720        3.4002942261
  C         9.6071575409        9.8356632091        3.6012164537
  C         9.8210428507       10.4426248845        4.8298196917
  C         8.9987485568       10.1611709974        5.9091848138
  C         8.0307138378        9.1401417864        5.7144160302
  C         7.9020761451        8.4724527276        4.5188470136
  H         6.3305146171        9.6170557470        3.0921731355
  H         4.3975133797       10.6957034720        1.9012425020
  H        10.1089690012       10.2349312993        2.7261302324
  H        10.5029389484       11.3054377486        4.7975787432
  H         9.0810536148       10.6630541749        6.8887318212
  H         7.4708333658        8.7857559343        6.5945367012
  H         7.0856464721        7.7766096600        4.3974345887
  C         9.5443742087        7.5679565337       -0.1106656445
  C        10.5412357689        6.9028105735       -0.8938941870
  C        11.6389319089        6.3851621613       -0.0942257495
  C        11.6391107101        6.3723768451        1.3713422355
  C        10.4756398550        6.8514486236        2.0907988374
  C         7.2668090037        8.7463556450       -0.1650888289
  C         8.4102071247        8.3125854406       -0.8736909463
  C         8.6168413111        8.6802623848       -2.3020124259
  C         9.4735095459        9.7878471400       -2.6134222007
  C         9.5818264023       10.3627166876       -3.8532202983
  C         8.8438247210        9.7432655956       -4.9284227407
  C         7.9848187300        8.6912727152       -4.6411187989
  C         7.9192945649        8.0364006499       -3.3739325126
  H         7.4520426519        7.0709968201       -3.1777802583
  H         7.3953348430        8.2883028682       -5.4691624368
  H         9.0832356766       10.0131629690       -5.9175005119
  H        10.2730779178       11.2202280601       -3.9300581680
  H         9.8814718578       10.3692658571       -1.8076174935
  C         6.2396925685        9.5971718063       -0.8034528166
  C         5.2097539859       10.1641357203       -0.0858429278
  H         4.3948566570       10.8182437669       -0.5827900180
  H         6.3265395281        9.8470026583       -1.8685371115
  C        10.3196905342        6.5066413925        3.5055005927
  C         9.4811894521        5.5304305725        4.0243340031
  C         9.6355297998        5.0966319024        5.3142420941
  C        10.5780136637        5.5906926617        6.2162838356
  C        11.4399868086        6.6211298447        5.7102735473
  C        11.2439905688        7.0076960556        4.3840507412
  H        11.8242547285        7.8292189792        3.9237975971
  H        12.1995768712        7.1115160625        6.3218474657
  H        10.6497228600        5.2357507625        7.2329964810
  H         8.9731352211        4.3356269348        5.7344553330
  H         8.6185176520        5.0935638967        3.5383319845
  C        12.8128992211        5.8776887682        2.0639054550
  C        13.8254933740        5.2888224356        1.3536774951
  C        13.8327144313        5.3269089693       -0.0488359637
  C        12.7515198352        5.7887918911       -0.8245210580
  H        12.6738029994        5.7107673855       -1.9176952136
  H        14.5920229378        4.6950509340       -0.4862726601
  H        14.6139871216        4.6969033086        1.8047841171
  H        12.8694217655        5.9230445881        3.1820432108
  C        10.4870746138        6.6270103849       -2.4031387805
  C         9.6979708576        5.4994548933       -2.8862142118
  C         9.7559362831        5.0680697017       -4.1965286400
  C        10.4997632145        5.8389949321       -5.1319298270
  C        11.2901340715        6.8936307900       -4.6960109653
  C        11.3260889690        7.2916659459       -3.3186639349
  H        11.9124758715        8.2147290981       -3.0470664276
  H        11.9126600646        7.4341130959       -5.3388045611
  H        10.6096678586        5.5841998757       -6.1965756557
  H         9.2574794184        4.1289373060       -4.5428923451
  H         9.0730855352        4.9572204018       -2.2143518892
