140

  C        16.2288906187       -0.3503546339        2.6915891153
  C        17.3098783775        0.2567953121        3.3546311238
  C        18.3578960969        0.8451649568        2.5746459008
  C        19.5276019836        1.4134041770        3.1580998276
  C        20.5008159261        1.9683264997        2.3865445519
  C        17.3561263123        0.5958981470        4.8400438103
  C        16.5082135386        1.6307860911        5.2318315874
  C        16.4919991473        2.1374427876        6.5425119236
  C        17.3999129101        1.6774150997        7.4817139626
  C        18.2511169520        0.6417967141        7.1158771558
  C        18.1935926028        0.0892736750        5.8289788853
  H        19.6036964421        1.6306111641        4.2244779455
  H        21.3096720517        2.4910863095        2.8681831510
  H        15.8471403674        1.9443852794        4.4514588938
  H        15.7306383160        2.9049766258        6.7792653373
  H        17.3618242298        2.1329350047        8.5104575312
  H        18.9327412488        0.2220957869        7.7919276884
  H        18.8785642321       -0.7460663326        5.6629614782
  C        16.0929046958       -0.2030346978        1.2953688235
  C        15.0871090688       -0.9536521959        0.6264129355
  C        13.9692738244       -1.4645317664        1.2717343313
  C        14.0684409638       -1.6022056693        2.7593708354
  C        15.2692750086       -1.0957411378        3.4764724696
  C        18.2685632667        0.9297100423        1.1104145836
  C        17.0927976390        0.4338463996        0.5009346962
  C        16.9769741416        0.8687714756       -0.9550333779
  C        16.0328308891        1.7889766393       -1.3846221292
  C        16.1957101157        2.5162491324       -2.5923360128
  C        17.1996439869        2.1437706567       -3.5093402005
  C        18.0094224643        1.0682528761       -3.1672383177
  C        17.9505287929        0.5246641233       -1.8785900460
  H        18.6941941282       -0.1624959336       -1.5579950655
  H        18.8350597088        0.7350421601       -3.8481515419
  H        17.1105901328        2.6341357620       -4.4537729924
  H        15.4138460654        3.2163597015       -2.8374366924
  H        15.1879221697        2.0953319253       -0.7505259029
  C        19.3290215198        1.5901286976        0.3693251298
  C        20.4924714717        2.0263170504        0.9578867344
  H        21.3332695397        2.5380980945        0.4256985945
  H        19.2614053280        1.6810630975       -0.7634517818
  C        15.4068913619       -1.5115378199        4.8744464084
  C        16.3025764927       -2.5177044837        5.3131045406
  C        16.0503268075       -3.1903442239        6.5009928876
  C        15.1449569771       -2.7377722094        7.4210284963
  C        14.2840262186       -1.6074500372        7.0632223740
  C        14.5015069293       -0.9917816551        5.8182216038
  H        13.7850192349       -0.2853406944        5.4869667127
  H        13.5736589547       -1.3151656091        7.7791793479
  H        14.9637430835       -3.1044274741        8.4988798664
  H        16.6268471092       -4.0603844918        6.7411225160
  H        17.0469404008       -2.7896169729        4.5549905489
  C        13.1048100194       -2.3820266997        3.4465971790
  C        12.1360951656       -3.0554871795        2.7765621476
  C        12.0024324135       -3.0040083718        1.3263245719
  C        12.8678398427       -2.2144678831        0.6648087508
  H        12.6509761293       -2.2661831588       -0.4146649663
  H        11.1755726978       -3.5186422962        0.9124081548
  H        11.5020384319       -3.7494192520        3.3527184967
  H        13.1125893767       -2.3705432234        4.5254230255
  C        15.2596155642       -1.3691147627       -0.7880124434
  C        16.1799016143       -2.3625207220       -1.1509730767
  C        16.1878596326       -2.8736118988       -2.4767333882
  C        15.4301022410       -2.2583049053       -3.4725666556
  C        14.5139944547       -1.2834905971       -3.1010190026
  C        14.4179535373       -0.8367566845       -1.7938568077
  H        13.7635167447        0.0661630726       -1.5568698928
  H        13.9202119053       -0.7238658706       -3.7609415178
  H        15.5448860412       -2.6307772212       -4.5432053797
  H        16.7991372793       -3.7543482304       -2.8116405988
  H        16.6480258072       -2.8867496089       -0.3151665109
  C        12.7439604252        6.8519542630        2.6079565409
  C        11.6005237401        7.5194519019        3.2543579101
  C        10.4855056900        7.9372394437        2.4755273319
  C         9.3069200511        8.5405243309        3.1054123253
  C         8.2877127811        9.0279886347        2.3600491842
  C        11.6242851203        7.8139468018        4.7568147482
  C        12.4840292235        8.8847044869        5.2452984968
  C        12.4760207842        9.1259091552        6.6387182839
  C        11.5953155126        8.4287727480        7.4632345025
  C        10.6704081548        7.4887107647        6.9325891042
  C        10.7497539634        7.1333067035        5.6203026186
  H         9.2905991008        8.6495798170        4.1762646188
  H         7.4940099179        9.5836705153        2.8366280589
  H        13.0753238597        9.3871693497        4.4919861613
  H        13.0711288857        9.9404021752        6.9953438299
  H        11.5364822405        8.5219993471        8.5889030759
  H         9.9491714669        7.1437055724        7.6532055626
  H        10.0130590018        6.4792621485        5.1591149567
  C        12.7411174465        6.8906636925        1.1747511009
  C        13.6977631339        6.1566574834        0.4183253125
  C        14.8256234995        5.6822922213        1.1543496299
  C        14.8944587379        5.7661609465        2.6027661519
  C        13.7741381944        6.2145905915        3.2773512744
  C        10.5647258529        8.0781010639        1.0463780790
  C        11.7403157163        7.5886527729        0.4117173998
  C        12.0005191964        8.0630423873       -0.9535997909
  C        12.8654333599        9.1233911239       -1.1353344892
  C        12.9285906525        9.8162995344       -2.3704051443
  C        12.0370495913        9.3773029879       -3.4123575967
  C        11.1955684574        8.3032453779       -3.2116153170
  C        11.1859055379        7.6186949738       -1.9910219121
  H        10.6183835209        6.7026586460       -1.8850483301
  H        10.6362792271        7.9433843824       -4.1216457554
  H        12.1045391597        9.8830218157       -4.3923189697
  H        13.7254416503       10.4759953317       -2.5704520998
  H        13.5289932343        9.3918395660       -0.3332729039
  C         9.3993358008        8.5886128456        0.3315384052
  C         8.2584332134        9.0449915211        0.9511472383
  H         7.4239953697        9.5603931335        0.4196626149
  H         9.5038837771        8.7321609746       -0.7276693397
  C        13.6750138208        5.7380064432        4.6383466671
  C        12.7989083915        4.7120047767        4.9252317885
  C        12.7958348639        4.0473039010        6.1531721911
  C        13.6516860040        4.5446423750        7.1665068677
  C        14.3541282578        5.6981731887        6.9869755639
  C        14.3989423169        6.2481828203        5.7128523295
  H        15.0125109937        7.1202613269        5.5945780733
  H        15.0346506708        6.1233569534        7.7549234479
  H        13.6853204214        4.0012742886        8.1402373275
  H        12.1429491572        3.2160482249        6.3591342503
  H        12.3448067603        4.1598571420        4.0569542702
  C        16.0913242620        5.3133460671        3.2164724851
  C        17.0914751901        4.5475820197        2.6075997813
  C        16.9387773927        4.2621556814        1.2615750662
  C        15.9131123055        4.9058989847        0.5343283544
  H        15.8926387420        4.7054228728       -0.5157364089
  H        17.6275842932        3.7017669654        0.6146729048
  H        17.8852574744        4.2054125889        3.2401272351
  H        16.3334015527        5.5530479542        4.2459681129
  C        13.4868136165        5.6603914110       -1.0312089177
  C        12.5613777779        4.6187136416       -1.2096014605
  C        12.3644900751        4.1151577542       -2.5634260886
  C        12.9928619241        4.7436943727       -3.6354356444
  C        13.8861034278        5.8125664100       -3.4162165034
  C        14.1904270212        6.2186604939       -2.1093401993
  H        14.9087773782        7.0387610687       -2.0337585376
  H        14.4290506309        6.1739460035       -4.2781023905
  H        12.6402908112        4.3652546685       -4.6555172536
  H        11.7359237643        3.2562181466       -2.6284385332
  H        12.0677784005        4.1250233592       -0.3841029705
