140

  C         3.9917427398       -0.7599918492       14.0918091657
  C         4.9365965982        0.0106982552       14.8531846916
  C         6.0136510268        0.6394602182       14.2366282684
  C         7.1574232750        1.1120513218       14.9566615100
  C         8.2228214637        1.6935215507       14.3271023283
  C         4.8441659668        0.3800295993       16.2941672676
  C         4.2731187751        1.5619215527       16.6812540126
  C         4.4444444578        1.9716106985       18.0006092789
  C         5.2959785239        1.3332670469       18.8992157806
  C         5.8344058837        0.1084653050       18.5536781587
  C         5.6516138229       -0.3335915953       17.2155304863
  H         7.0816784105        1.0137100135       16.0259088106
  H         9.1527356005        1.9741253369       14.8503583230
  H         3.5568303090        2.0536176560       16.0614095213
  H         4.0107079716        2.9342589270       18.2063303526
  H         5.3635290723        1.6972705404       19.9495394384
  H         6.3013522348       -0.6466123034       19.2893220372
  H         6.0369733282       -1.3195623393       16.8894485835
  C         4.0466549346       -0.7277133418       12.5852123007
  C         2.9683551774       -1.4025760238       11.8565093208
  C         1.8008085483       -1.7075411656       12.5786872712
  C         1.7334193960       -1.6792994354       14.0295062360
  C         2.8995180512       -1.2652983667       14.7910963087
  C         6.0766401985        0.6301305230       12.7794460953
  C         5.0208182435        0.0897810518       11.9205650220
  C         4.8784040516        0.5035709031       10.5416640152
  C         4.0842915382        1.6124240200       10.1651063808
  C         4.1801440928        2.1255723231        8.9060856262
  C         5.0041688347        1.5149947264        7.9357944748
  C         5.7598588717        0.3843383318        8.3090559130
  C         5.7594123020       -0.0532775276        9.6396402160
  H         6.4643820358       -0.8328319249        9.9930381766
  H         6.4529207665       -0.0046064875        7.5710392520
  H         5.0444991148        1.8968238945        6.9419684392
  H         3.5955708974        2.9247100465        8.4987187253
  H         3.5156520388        2.1369986097       10.8540391268
  C         7.0554853691        1.5259291906       12.1654504418
  C         8.0964806230        1.9369544184       12.9126611021
  H         8.8841697923        2.4154316942       12.4132477208
  H         6.9617952330        1.7609668768       11.0878652022
  C         3.0022696511       -1.6167122357       16.2497414107
  C         3.7057933036       -2.7744572135       16.6039808469
  C         3.8597411064       -3.1377128104       17.9328422909
  C         3.0510978901       -2.5745631530       18.8997159218
  C         2.2356631798       -1.4779765270       18.5627530083
  C         2.2386909696       -0.9986864765       17.2541703031
  H         1.6771147252       -0.1385330122       16.9676053119
  H         1.5601950671       -0.8986250284       19.2268555361
  H         3.0829536318       -2.8565767965       19.9497676244
  H         4.4855470380       -4.0165173735       18.2370244215
  H         4.2484765280       -3.3612672470       15.8954764272
  C         0.6205562278       -2.2821529823       14.6465847826
  C        -0.3841410417       -2.9417598828       14.0058184793
  C        -0.3868608877       -3.0223177228       12.5534124909
  C         0.7297573644       -2.4429702943       11.9606646928
  H         0.8391485510       -2.6481117557       10.8747328243
  H        -1.1483956878       -3.6579223633       12.0515274051
  H        -1.2242466765       -3.2582941662       14.5782099625
  H         0.5150634508       -2.3090532319       15.7439540696
  C         3.2257706348       -1.7250008203       10.4495259792
  C         4.0803398343       -2.7937356031       10.1546760157
  C         4.2572430130       -3.2673763169        8.8670714345
  C         3.4393823411       -2.7407771643        7.8429827877
  C         2.6160569909       -1.6361070577        8.0825637548
  C         2.4034844661       -1.1854403089        9.3952367858
  H         1.7802802009       -0.3449321856        9.6130340918
  H         2.1424714290       -1.1956701425        7.2119518129
  H         3.5068725060       -3.1727447632        6.8383271628
  H         4.8030409492       -4.1844091753        8.6202535446
  H         4.6181292798       -3.2063314042       11.0039698676
  C         0.2422287591        6.4303852619       14.1499910280
  C        -0.8313055811        7.1124878245       14.8202250480
  C        -1.9208057723        7.6355064710       14.0598240591
  C        -3.0403146765        8.2782247699       14.7270649603
  C        -3.9689597068        8.8854649866       13.9705512950
  C        -0.7866004339        7.5253702881       16.2039778564
  C        -0.0098498682        8.6777044775       16.5179154949
  C        -0.0958681830        9.2705688278       17.7719101780
  C        -0.8473910571        8.6991721763       18.7751712869
  C        -1.5304060485        7.5224831918       18.5447785641
  C        -1.5383159664        6.9500606649       17.2585163270
  H        -3.1534614187        8.2677006296       15.8052794620
  H        -4.7207751266        9.4713417239       14.4991422578
  H         0.4341127190        9.2455743923       15.6757534595
  H         0.3827206314       10.2026107023       18.0804873472
  H        -0.8526112423        9.1290567851       19.7943001103
  H        -2.0797223287        7.0121840135       19.3409543072
  H        -2.1608691289        6.1372562390       17.0893713593
  C         0.2515044327        6.3666879191       12.6755360220
  C         1.4045908619        5.7867236659       12.0953926825
  C         2.5757154016        5.3871212907       12.7750305182
  C         2.6319492276        5.4848799775       14.2675483745
  C         1.4254350194        5.9405819090       14.9159965724
  C        -1.8447491663        7.6519216626       12.6159789470
  C        -0.7299491592        7.1289243109       11.9506086914
  C        -0.5442557402        7.6674812494       10.5750166613
  C         0.3188753990        8.7585365447       10.4187976828
  C         0.6201452887        9.1643364107        9.1120604125
  C         0.1150008695        8.5389434812        7.9995918598
  C        -0.8633782529        7.5535317877        8.1867207005
  C        -1.1826029421        7.1176168676        9.4815105854
  H        -1.8039231091        6.2931710298        9.6227062533
  H        -1.3329157384        6.9800370724        7.4325214499
  H         0.4924342502        8.7145503982        7.0252048972
  H         1.3674163184        9.9368586389        8.8865051135
  H         0.7318944680        9.1675456014       11.3286910343
  C        -2.8871322436        8.3399223469       11.8949037063
  C        -3.9457577931        8.9365231500       12.5674459076
  H        -4.7477051555        9.4558425690       12.0820395018
  H        -2.8662065320        8.4201456159       10.7888972487
  C         1.3842446317        5.7471431400       16.3733916030
  C         0.6596224206        4.6333134865       16.8523114924
  C         0.7332195290        4.2411796687       18.1730559750
  C         1.5045684649        4.9988621586       19.0610860225
  C         2.2126512360        6.1130311088       18.6062438054
  C         2.1624557873        6.5164997440       17.2396176564
  H         2.7190615798        7.3212005180       16.7684817251
  H         2.7908297634        6.6580518974       19.3559572956
  H         1.5260391856        4.7648102194       20.1407707901
  H         0.0824269647        3.3756656935       18.4818976130
  H        -0.0608635245        4.1358214076       16.1590020971
  C         3.7513357149        5.0098129216       14.9343236979
  C         4.7665961031        4.3848966461       14.2861419585
  C         4.7338350599        4.3677880081       12.8564430872
  C         3.6929381671        4.8999848422       12.1253348647
  H         3.7279650140        4.9215300787       11.0299566640
  H         5.6037649261        4.0240150703       12.3963058630
  H         5.6499727671        4.0419461959       14.8506661145
  H         3.8231384862        5.2503247122       15.9784038415
  C         1.3926743661        5.4336229335       10.6023600938
  C         0.6035639640        4.4017994808       10.1232425211
  C         0.7352686085        4.0370258816        8.8073384518
  C         1.6414915014        4.7208986730        7.9803780711
  C         2.3733156828        5.7763858438        8.4760751485
  C         2.2349012041        6.1896909895        9.8192725029
  H         2.7679716933        6.9758927932       10.3375083136
  H         3.1103666718        6.0853209161        7.7681721030
  H         1.6274767324        4.4736209122        6.8909112594
  H         0.1572969161        3.1906912163        8.3276233847
  H        -0.1005871219        3.9134640815       10.7252444012
