140

  C        13.0168724846        0.5446048741        1.5342389933
  C        13.9604936386        1.3115697806        2.2416878433
  C        15.0698224802        1.9000106709        1.6238016553
  C        16.2799647043        2.4988771658        2.3001664717
  C        17.2599620409        3.0892431831        1.5373485853
  C        13.7964066056        1.6357286575        3.6899468247
  C        12.9617451632        2.7369110297        3.9538524680
  C        12.6683345075        3.1728301417        5.2788344328
  C        13.3837908160        2.5103351429        6.2941600810
  C        14.3617562549        1.5265124072        6.0012677984
  C        14.5019314103        0.9692625396        4.7052565918
  H        16.1801764100        2.5939998608        3.4278138179
  H        17.9418383154        3.6499127793        2.1437353899
  H        12.4553891349        3.2396736093        3.1214466996
  H        12.0270725198        4.0556148223        5.4160199667
  H        13.4070353649        2.8556022620        7.3014555643
  H        14.8834399394        1.1087421956        6.8086234572
  H        15.2316106214        0.2223429207        4.3888946574
  C        13.0316241814        0.5444240604        0.0631388556
  C        12.0457227418       -0.1494108894       -0.6756540542
  C        10.9690787076       -0.7425595133       -0.0339599958
  C        10.9595253965       -0.7141518593        1.4098414377
  C        12.0394478403       -0.1756677178        2.1479981198
  C        15.1339844354        1.9400494570        0.1607209453
  C        14.0738177592        1.3251545090       -0.5861683884
  C        13.9124474779        1.7279702259       -2.1020828352
  C        13.0593476866        2.7936977594       -2.2871541762
  C        12.8314277960        3.3549913732       -3.5289227012
  C        13.4920544628        2.7751645158       -4.6240826632
  C        14.3769456404        1.7089149109       -4.4433376999
  C        14.6099661445        1.1355733700       -3.2015580563
  H        15.0988658708        0.1570352228       -3.1372796687
  H        14.9737832730        1.4441470127       -5.3253586939
  H        13.3830818014        3.0880585470       -5.6601190381
  H        12.0720224233        4.1543746188       -3.5316266074
  H        12.6267249376        3.1441656155       -1.4184077222
  C        16.2271996000        2.6076985127       -0.5547050428
  C        17.2885984809        3.1071739369        0.1214027838
  H        18.1325890892        3.5166839075       -0.3739323213
  H        16.1978020688        2.6452393416       -1.6347576733
  C        12.0907106793       -0.4851511153        3.6610785635
  C        12.8396793734       -1.6566017692        4.0246212449
  C        12.8807163323       -2.1643394320        5.3312406038
  C        12.1543775108       -1.4587173504        6.2865121091
  C        11.3576702725       -0.4307442567        5.9573196238
  C        11.2741372833        0.0490007040        4.5904557869
  H        10.6638941236        0.9040572060        4.3631448196
  H        10.7522886000        0.0197523427        6.7368220260
  H        12.1914803518       -1.7369094478        7.3400528472
  H        13.4934350793       -2.9683255074        5.5209778500
  H        13.3459947798       -2.2216810600        3.2225443719
  C         9.7416081485       -1.2504446286        2.0166918435
  C         8.7168774617       -1.7391690004        1.2533128684
  C         8.7466526913       -1.7253968909       -0.1721099129
  C         9.9060276169       -1.3353354907       -0.7948864858
  H         9.9313921389       -1.1780351527       -1.9060167815
  H         7.9228706537       -2.0442704432       -0.8280201492
  H         7.8531510392       -2.1071019483        1.7529979141
  H         9.5810909545       -1.1797490180        3.0494131487
  C        12.2258581406       -0.4389808179       -2.1058037391
  C        13.0933927136       -1.4801173203       -2.4360457365
  C        13.1697858038       -2.0214358553       -3.6817520110
  C        12.4707604903       -1.4763215464       -4.7277729753
  C        11.5852710916       -0.4365102140       -4.4792531431
  C        11.4770247596        0.0361792392       -3.1693916128
  H        10.7863660982        0.8435328665       -2.8659384300
  H        10.8937425937       -0.1014485135       -5.2353656346
  H        12.4865350528       -1.8716548098       -5.7212129298
  H        13.8574582875       -2.8678703544       -3.7617332114
  H        13.6391469065       -1.9393552824       -1.6275495470
  C         9.3657694535        7.9625542839        1.3406834244
  C         8.2993379979        8.5726957973        2.0535252542
  C         7.1619426233        9.1232054186        1.3890984268
  C         5.9604774648        9.5943671643        1.9756829968
  C         5.0450767723       10.3890083117        1.2642523130
  C         8.4306645498        8.8901326026        3.5603595135
  C         8.9891987868       10.0650978525        3.9402823586
  C         8.9125230972       10.3354794051        5.3710149545
  C         8.2326751979        9.5283851027        6.2854817882
  C         7.4365000118        8.4621097006        5.8019191080
  C         7.6544631929        8.0778368072        4.4549250622
  H         5.8924250800        9.4119306476        3.0007523056
  H         4.2501673100       10.8797849470        1.8049903940
  H         9.4055168104       10.7254882261        3.1857847900
  H         9.2900174972       11.2718880417        5.7610439493
  H         8.1826326149        9.7528616140        7.3736819517
  H         6.8432324158        7.8672508528        6.4743680584
  H         7.0588082542        7.2724606780        3.9846272114
  C         9.3387362592        7.8793775629       -0.1785712618
  C        10.3051836569        7.1425268306       -0.8930318412
  C        11.4224297189        6.5499655346       -0.1909436641
  C        11.4347352654        6.5981358274        1.2554367785
  C        10.3792030859        7.2100920772        2.0239302864
  C         7.2728350284        9.2419478978       -0.1047128330
  C         8.2867172571        8.6699907624       -0.8232196772
  C         8.4264612688        9.0377143688       -2.3046887986
  C         9.1429113613       10.1895925447       -2.6599705373
  C         9.3320227590       10.6022194950       -3.9585751160
  C         8.5997969391        9.9170931092       -4.9560679611
  C         7.7265001738        8.8940371186       -4.6180587736
  C         7.6429973233        8.3835891666       -3.3715599011
  H         7.0306163887        7.4592748665       -3.2401839301
  H         7.0611781613        8.4391068782       -5.3604126815
  H         8.6186545537       10.2020824946       -5.9963198205
  H        10.0842912553       11.3337580358       -4.1704556869
  H         9.8572508535       10.6211254888       -1.9089884413
  C         6.1941484671        9.9804614792       -0.7552693191
  C         5.1400352170       10.5549250113       -0.0940946001
  H         4.4053813619       11.2074804859       -0.6411502003
  H         6.2666639656       10.0727400271       -1.8344539807
  C        10.2984757568        6.7861900254        3.4071369516
  C         9.5106330418        5.6565139600        3.7285904093
  C         9.5607939586        5.0908079056        4.9753201223
  C        10.3496947673        5.6801816071        5.9918142768
  C        11.1811205978        6.7966212403        5.7292866688
  C        11.0956870550        7.2935171380        4.3980035224
  H        11.6922812042        8.1711173114        4.0203000857
  H        11.9445039778        7.2033640087        6.3918776641
  H        10.1650959676        5.2855134066        6.9937779552
  H         9.0053117823        4.1855324132        5.0717042285
  H         8.7409778297        5.3400712725        3.0512957042
  C        12.5219667031        5.9974184041        1.9365669201
  C        13.5432957547        5.3843419135        1.3033367629
  C        13.5361294901        5.2897491141       -0.1150684297
  C        12.4762621909        5.8358393696       -0.7760550450
  H        12.3646583273        5.8526853275       -1.8596051447
  H        14.4479481969        4.9194913942       -0.6314768159
  H        14.4343522220        5.0399759868        1.8469464455
  H        12.4524863504        6.0965625045        3.0180783501
  C        10.1494936556        6.8237090859       -2.3097906519
  C         9.5135543989        5.5623966534       -2.7644318773
  C         9.5033696675        5.1637170834       -4.1362046932
  C        10.3550190597        5.9538448684       -4.9727914773
  C        11.0182663422        7.0803864469       -4.5674926883
  C        10.9203526966        7.5872423243       -3.2646447936
  H        11.6146731106        8.4159484344       -2.8867557470
  H        11.6706313722        7.5669397236       -5.2830199303
  H        10.3910937456        5.6830571538       -6.0236412935
  H         8.8628117541        4.3742752261       -4.5331762750
  H         8.9818945369        5.0486985214       -2.0278046882
