140

  C         4.3344980425       -0.7334199166       14.1099470962
  C         5.3143142590        0.0381211330       14.8474964314
  C         6.2682868653        0.7833165521       14.0255911850
  C         7.3615526969        1.4774088923       14.7050600507
  C         8.4313164038        1.9759162142       14.0422036668
  C         5.4096336999        0.3654300754       16.3555246731
  C         4.8114012666        1.5171193613       16.8782209576
  C         4.8324904145        1.7519265599       18.2542717574
  C         5.6321521835        1.0545535163       19.1194394729
  C         6.3490962535       -0.0314235310       18.6449967890
  C         6.1842897130       -0.4519542132       17.2567156080
  H         7.3895121860        1.5799222920       15.7846010502
  H         9.3291429441        2.4143154682       14.4743415608
  H         4.2714145279        2.1778701734       16.1890010603
  H         4.2281556914        2.5565542524       18.5754291076
  H         5.6358950550        1.3257354361       20.1977868310
  H         6.7817691413       -0.7048765895       19.3719886710
  H         6.6698552927       -1.3394565502       16.9226303904
  C         4.3441269951       -0.6882524131       12.6756099519
  C         3.2580371070       -1.3654120724       11.9902085518
  C         2.2271458899       -1.9400329837       12.7371669952
  C         2.2594573781       -2.0810281664       14.2308453550
  C         3.3293816951       -1.4316634682       14.8659279704
  C         6.4039314653        0.7457560418       12.6169283175
  C         5.3286435899        0.0462303292       11.9676211726
  C         5.2575210816        0.4128148892       10.4662406121
  C         4.4140719471        1.5042128979       10.1381581737
  C         4.3900305573        1.9800026447        8.8365047295
  C         5.2389567354        1.4301656091        7.8448656022
  C         6.1080036448        0.3709403054        8.2031929473
  C         6.0709227151       -0.1894668601        9.4946639359
  H         6.8160271660       -0.9507796826        9.8093654488
  H         6.8893439947        0.1789230659        7.4830300387
  H         5.4438151970        1.9026515990        6.9052175914
  H         3.7159211635        2.7198052573        8.4013052222
  H         3.7956767710        1.9088464632       10.9473509778
  C         7.3994171977        1.5151730596       11.9212941897
  C         8.5085134189        1.9325315305       12.5916821901
  H         9.3887084955        2.1711385302       12.0748784586
  H         7.4274326803        1.5183120486       10.8246172046
  C         3.5136877407       -1.8259331950       16.3341866383
  C         4.2622478428       -2.9818805725       16.6040733158
  C         4.2986991652       -3.4724096819       17.8923638376
  C         3.6830780708       -2.7351783105       18.8767284516
  C         2.9406164355       -1.5537989566       18.6778297317
  C         2.8135398778       -1.0525188790       17.3419255288
  H         2.0030713237       -0.3735108282       17.0273479810
  H         2.4301837489       -1.0573540274       19.5450857854
  H         3.7488261952       -3.0192819464       19.9548170481
  H         4.7320925330       -4.4569846530       18.1050603575
  H         4.6401308463       -3.6007984638       15.7791542182
  C         1.1185382539       -2.7274474179       14.8366655672
  C         0.0747617803       -3.2258657024       14.1670218740
  C         0.0302219686       -3.1341360928       12.7202619516
  C         1.1095433548       -2.5911800650       12.0767844470
  H         1.0686038088       -2.4567108451       10.9877284633
  H        -0.8200787347       -3.5480045044       12.2285778096
  H        -0.7867398726       -3.6984138487       14.7629804391
  H         1.0741584597       -2.7780985091       15.8846751895
  C         3.2456292937       -1.6494891855       10.5230590502
  C         3.7749419884       -2.8826519847        9.9587620850
  C         3.4074664236       -3.2482236040        8.6727229652
  C         2.5837968374       -2.4326987664        7.9045268465
  C         2.0818550001       -1.2140865307        8.3772975929
  C         2.4019528332       -0.8561674339        9.6985195690
  H         2.0180497064        0.0121817422       10.1737179292
  H         1.4103746178       -0.7004924705        7.7028499684
  H         2.2675763923       -2.8003708747        6.9047026663
  H         3.6290787865       -4.1827537341        8.2479401676
  H         4.5109137256       -3.4774604290       10.5217039841
  C         0.7045950162        6.6387149520       14.5082044265
  C        -0.4095567287        7.3201933673       15.1959611473
  C        -1.4191974069        7.9686999404       14.4830052672
  C        -2.4751034440        8.6503646989       15.2128661666
  C        -3.5751741342        9.0916685412       14.5464657998
  C        -0.1967926082        7.7271602764       16.6345403143
  C         0.7549489361        8.6861345721       16.9944281898
  C         0.9082493417        9.0377018984       18.3370506552
  C         0.0460217811        8.5520431517       19.3508354452
  C        -0.9545893705        7.6098245598       18.9629786407
  C        -1.0194431993        7.1990432154       17.6283513220
  H        -2.3215117055        8.7098652078       16.2698613798
  H        -4.3497881476        9.6239964007       15.0926371171
  H         1.3212177820        9.2259721130       16.2625356967
  H         1.7876314082        9.6166547686       18.6216218490
  H         0.2624123316        8.5712662271       20.4214459429
  H        -1.6824041342        7.3430896041       19.7277711061
  H        -1.6599143214        6.4670578190       17.2539782359
  C         0.6329765388        6.6352164837       13.0490256439
  C         1.6804736646        6.0432908280       12.2153678788
  C         2.8750312773        5.6212341087       12.8536418546
  C         2.9595400583        5.4956687149       14.3202999287
  C         1.8177936009        5.9294288260       15.0912455310
  C        -1.4720002935        7.9108804363       13.0711232134
  C        -0.3915240840        7.3605940893       12.3849611862
  C        -0.3616519977        7.6688223837       10.8948805357
  C         0.3587934440        8.7830341024       10.4617668791
  C         0.3820894829        9.1019868659        9.0647302517
  C        -0.2946295507        8.2878175841        8.1985740014
  C        -1.1313594469        7.2667205654        8.6062616603
  C        -1.1335607901        6.9034959896        9.9871920062
  H        -1.6216813891        6.0017952844       10.3991702952
  H        -1.6069642562        6.6360575536        7.8702581566
  H        -0.2435031660        8.3720271190        7.0870011734
  H         0.9920580203       10.0017830600        8.7342378285
  H         0.8635207524        9.3553307156       11.2080825317
  C        -2.6245368094        8.5087248944       12.4139564016
  C        -3.5743034586        9.1266470985       13.1186622683
  H        -4.5220610925        9.5524059472       12.7214583825
  H        -2.7047694562        8.4651084492       11.3172930177
  C         1.9398374724        5.6161829858       16.6193743379
  C         1.1570459765        4.5244658770       17.1523276689
  C         1.2856698939        4.0933403481       18.5532512164
  C         2.2427640826        4.6921317749       19.3406791015
  C         2.9555503258        5.7939060511       18.8860369079
  C         2.7451421892        6.2808471937       17.5724511476
  H         3.3761335965        7.0904630522       17.1696975811
  H         3.7461101333        6.2221183604       19.5111889702
  H         2.5031666957        4.3057698617       20.3260834797
  H         0.5440498770        3.3884105000       18.9959665822
  H         0.3969057959        4.1843306302       16.4958799270
  C         4.0547053074        4.6484371548       14.8182283307
  C         4.8936233767        3.9889975616       13.9422677004
  C         4.9273144419        4.2305182524       12.5254911373
  C         3.9145120780        5.0943755706       12.0726645782
  H         3.9531652518        5.3219853328       10.9968369819
  H         5.7148437641        3.7375216400       11.9787544505
  H         5.6265396298        3.3402975331       14.3766996648
  H         4.1832716683        4.4985418547       15.8961946867
  C         1.6500078014        5.7563182941       10.7393482741
  C         1.0381293731        4.5505312878       10.3986887998
  C         1.1931151565        3.9225780029        9.0889879971
  C         1.7418813548        4.6960730663        8.0364700543
  C         2.3299425371        5.9541213655        8.3929775812
  C         2.3096670766        6.4281126507        9.7057945619
  H         2.8383003719        7.3151326022       10.0283473784
  H         2.8499275706        6.5309046288        7.6462303785
  H         1.9271002651        4.2576612153        7.0228413870
  H         0.6898353910        2.9521938642        8.7414265353
  H         0.5705879749        3.9924369795       11.1869210414
