140

  C        14.2366258291        0.1154926992        0.9563764699
  C        15.1863915717        0.9048163893        1.7257622953
  C        16.2854569377        1.4200041260        1.0279196827
  C        17.2545750798        2.2976426781        1.6526987724
  C        18.3740619330        2.8432541736        1.0180388766
  C        15.1033862847        1.2657522731        3.1460897153
  C        14.1942971991        2.3078729408        3.5482042890
  C        14.0578915111        2.5156331648        4.9413335825
  C        14.7129885438        1.6705026139        5.8304479860
  C        15.5543108174        0.6711416781        5.3989776420
  C        15.7383682061        0.5102700649        4.0520691494
  H        17.1446513113        2.5425118585        2.7247183164
  H        19.1231602992        3.3943826229        1.5479757431
  H        13.5254018564        2.6977994246        2.7487971650
  H        13.1328463869        3.0337105321        5.3209309565
  H        14.5947763429        1.8738803761        6.9012958155
  H        16.1612342042       -0.0365305536        6.0074623373
  H        16.4344969575       -0.2663698439        3.7496192184
  C        14.3275435328        0.1597838611       -0.5285930755
  C        13.2769850366       -0.5040586731       -1.3048465133
  C        12.2018299852       -1.0858063623       -0.6466437197
  C        12.0995827344       -1.0446711952        0.8419739088
  C        13.2058907490       -0.6606803644        1.5844790083
  C        16.3868621956        1.3808470772       -0.4362524139
  C        15.3382110657        0.8389080207       -1.2339737167
  C        15.3348161383        1.2344549378       -2.6848054674
  C        14.3897254137        2.2381373805       -3.0651503003
  C        14.2426734248        2.6235460548       -4.4328376651
  C        15.2300381846        2.2076407156       -5.3202781978
  C        16.2124727733        1.2661893994       -4.9413881057
  C        16.3180038670        0.8238069146       -3.6497968854
  H        16.9912685671       -0.0059595458       -3.3442967713
  H        16.9052712580        0.8855717806       -5.6875389107
  H        15.3181920388        2.4918843804       -6.3573220950
  H        13.5018568563        3.3425458417       -4.6129286306
  H        13.7549073670        2.6376315890       -2.3051026226
  C        17.5782649203        1.8267515730       -1.0406309689
  C        18.5501549842        2.5042986507       -0.3155764078
  H        19.4133198768        2.9281549865       -0.8500143071
  H        17.7266168167        1.6154614824       -2.0920934062
  C        13.2850122772       -0.9569976655        3.0450276803
  C        13.9786092998       -2.0938453846        3.5037338003
  C        13.9684087726       -2.3966562547        4.8816131538
  C        13.1694294566       -1.6285954491        5.7704569685
  C        12.3272952419       -0.5867181012        5.2950721946
  C        12.5325553518       -0.1622664068        4.0035019394
  H        12.0077981507        0.7221898875        3.7086743453
  H        11.7650192231        0.0553150090        5.9306665609
  H        13.0270041892       -1.8529973960        6.8087759005
  H        14.6075031750       -3.2150186751        5.3090240153
  H        14.6558860262       -2.6457565093        2.9138388693
  C        11.0570720970       -1.7285682731        1.5026886196
  C        10.1160664413       -2.4506242703        0.8065147938
  C        10.2369851484       -2.4509502372       -0.6025998265
  C        11.2234294607       -1.8467180028       -1.3124238806
  H        11.2305321101       -2.0107700974       -2.3587291791
  H         9.5419070983       -3.0673337666       -1.1505179758
  H         9.1696202739       -2.8502709549        1.2913510069
  H        10.9082277640       -1.6339347312        2.5606489707
  C        13.4941411075       -0.8347522226       -2.7192326672
  C        14.3550700317       -1.9093355460       -2.9950730893
  C        14.4377499866       -2.4313266929       -4.2923364474
  C        13.5678037174       -1.9662164919       -5.3052669853
  C        12.6347505580       -0.9477132023       -5.0117784255
  C        12.5861127730       -0.4580532344       -3.7031136757
  H        11.9502741768        0.4042048188       -3.4581863786
  H        11.9277628466       -0.6362698613       -5.7735153132
  H        13.5649729974       -2.3336834760       -6.3378125285
  H        15.1159052518       -3.3356925958       -4.4519124082
  H        14.9440759870       -2.2646718374       -2.2023430969
  C        10.8642529729        7.3464573863        1.2936240285
  C         9.8024102900        8.1090279969        1.9951248983
  C         8.7112720476        8.6279848269        1.2531404280
  C         7.7563038277        9.4324928667        1.9740279692
  C         6.7534045705        9.9668604906        1.2701611373
  C         9.8617697692        8.4072901970        3.4674100582
  C        10.6472397991        9.5177723490        3.8424409172
  C        10.6112863605       10.0514309913        5.1069329676
  C         9.7204860355        9.4826616297        6.1138023055
  C         8.9265150881        8.4729095794        5.7281352843
  C         8.9311186064        7.9479325456        4.4191204943
  H         7.9449298705        9.4960671658        3.0524304542
  H         5.9794576350       10.4794050143        1.8312295031
  H        11.3434393172        9.9548814717        3.1704791839
  H        11.2300115906       10.8518867898        5.3859837958
  H         9.6614166086        9.9280556235        7.0717630891
  H         8.0835287581        8.2028228715        6.4065731192
  H         8.1478708244        7.2089979686        4.3207419217
  C        10.8218696679        7.3413409069       -0.2155323917
  C        11.8147542083        6.6051940921       -0.8691243011
  C        12.8664354913        5.9262066908       -0.2124657549
  C        12.9230357141        6.0101023461        1.2568120000
  C        11.8043501351        6.5655637696        1.9405610565
  C         8.6566717611        8.5427963989       -0.2258836803
  C         9.7624955052        8.0751500414       -0.9115059254
  C         9.7672322861        8.3128682279       -2.4546909497
  C        10.6826289095        9.3219664003       -2.9121281624
  C        10.6036436331        9.7901696361       -4.2068998208
  C         9.7374467345        9.2000990046       -5.1272489841
  C         8.9544173161        8.0537963099       -4.7170341555
  C         8.9594459850        7.6263503324       -3.3818964557
  H         8.4303771497        6.6953886273       -3.0965072576
  H         8.4818274309        7.4071757713       -5.4945532202
  H         9.6020192394        9.5758194301       -6.1056456173
  H        11.3536520632       10.5223608699       -4.5421885181
  H        11.3722426902        9.7022289590       -2.1935181930
  C         7.4970729798        9.1041102959       -0.8202081798
  C         6.5812410722        9.7996305251       -0.1112542401
  H         5.6517085681       10.1707729711       -0.5673765165
  H         7.4685206472        9.0867161566       -1.8654946774
  C        11.7787937091        6.2599305623        3.4090613257
  C        10.9211456055        5.2287405491        3.9084849422
  C        10.9468620754        4.7941670380        5.2501385584
  C        11.8806389714        5.3174466947        6.1223530133
  C        12.7696582972        6.3244185138        5.6684373061
  C        12.7030202092        6.8290864438        4.3507807298
  H        13.3029831803        7.7039545206        4.1681486930
  H        13.5428868251        6.7475847304        6.2992161284
  H        11.9699217546        4.9474930862        7.1733660317
  H        10.2905589082        4.1063735311        5.7434087426
  H        10.1740123538        4.8404387023        3.2478396430
  C        13.9750771277        5.3746060492        1.8556533577
  C        14.8875923937        4.6403168333        1.1276288904
  C        14.7676461625        4.5054344873       -0.2618303942
  C        13.7682966103        5.1167888221       -0.9466710659
  H        13.7415783221        5.1865381613       -2.0718753996
  H        15.5439405156        3.9231793669       -0.7865723925
  H        15.7216820752        4.0827097866        1.5920782475
  H        14.2053535399        5.4683035485        2.9045617292
  C        11.5429691071        6.1838437963       -2.2630258221
  C        10.6153137981        5.1231125764       -2.5198950924
  C        10.4270235517        4.6264994750       -3.8151196509
  C        11.1370371908        5.2102182150       -4.9316935978
  C        12.0852588192        6.1674469562       -4.7039673667
  C        12.2169627790        6.6985924432       -3.4216372381
  H        13.0627136777        7.4133573229       -3.2014190718
  H        12.6729902861        6.4132940738       -5.6168943904
  H        10.8928229120        4.9337223379       -5.9045621336
  H         9.8498766703        3.7369621058       -3.9437964913
  H        10.1216080268        4.5932944543       -1.6866024055
