140

  C         5.1701047664       -1.5900723926       13.7855869731
  C         6.2064647873       -0.7929876036       14.4453819024
  C         7.2752548725       -0.1315728789       13.7580417634
  C         8.3201327030        0.5595993422       14.4418516404
  C         9.3219619374        1.1803951367       13.7393767113
  C         6.1999732576       -0.3587281160       15.8813632209
  C         5.4025887183        0.7779008444       16.1820009665
  C         5.3559482623        1.2584585442       17.5124805598
  C         6.1370181731        0.6556099106       18.5306950146
  C         6.8613291377       -0.4874916259       18.1294029420
  C         6.9553297518       -0.9669845571       16.8514773116
  H         8.4644840182        0.4694001518       15.5059248325
  H        10.2278824648        1.6851829725       14.1080724682
  H         4.8460797070        1.2449205741       15.4855692411
  H         4.7627117830        2.1679403388       17.6655962378
  H         6.0982970651        1.0249560659       19.5621421124
  H         7.5424439637       -1.0353208516       18.8234297281
  H         7.6299102264       -1.8154630680       16.7506106606
  C         5.1960594595       -1.5596056668       12.2845075319
  C         4.2172546489       -2.2715031806       11.5468958507
  C         3.0889545272       -2.8219981964       12.2251466409
  C         3.0293918076       -2.8133922883       13.7066070877
  C         4.1049783901       -2.2984220295       14.4339885775
  C         7.2565374923       -0.1258844246       12.3227521122
  C         6.2137717042       -0.7522847879       11.6382622348
  C         6.1495707870       -0.3434178842       10.1862953749
  C         5.3978804455        0.7503509071        9.8223916965
  C         5.2537987589        1.0954398946        8.4387351783
  C         6.1190936716        0.5094298359        7.4760741405
  C         6.7778593039       -0.7015150652        7.8365368757
  C         6.8332793736       -1.0791978981        9.1924243059
  H         7.3515884437       -2.0150400842        9.4608380617
  H         7.1954097646       -1.4002292961        7.1436354209
  H         6.0297784097        0.7578107432        6.4360975355
  H         4.6306119569        1.9183281077        8.1852146767
  H         4.9233632672        1.3439528686       10.5758854437
  C         8.2673865757        0.6077770573       11.6665765637
  C         9.3269412445        1.2018271636       12.3621401016
  H        10.0536385316        1.8371270110       11.8633935959
  H         8.3187033301        0.7157772558       10.6130861229
  C         4.0381908219       -2.4497964239       15.9409132507
  C         4.8340417250       -3.4012551894       16.4198849567
  C         4.8590482779       -3.7816325767       17.7838257196
  C         3.9511600597       -3.0953892706       18.6325352658
  C         3.1535469888       -2.0478574946       18.1495433865
  C         3.1454804315       -1.7916010416       16.7951837122
  H         2.4168351020       -1.0774955959       16.2653909830
  H         2.3875596041       -1.6203486651       18.8657592837
  H         3.8927497621       -3.3114441210       19.6938822690
  H         5.5913885362       -4.5298917200       18.0784867181
  H         5.4864574763       -3.8764017896       15.6486123198
  C         1.9100113928       -3.3006979650       14.3216293778
  C         0.8587695239       -3.9002781075       13.6555049485
  C         0.8914890005       -3.9182783449       12.2083897165
  C         1.9882519630       -3.4065932465       11.5340198902
  H         1.9800756865       -3.4691652447       10.4374515440
  H        -0.0550182477       -4.3264978724       11.7266675271
  H         0.0148508532       -4.4179830046       14.1333508887
  H         1.8469524460       -3.3781512829       15.4014749709
  C         4.2343804324       -2.6142434808       10.0732477354
  C         4.8576669086       -3.7599360299        9.6013405032
  C         4.7547085913       -4.2165208593        8.3010258923
  C         3.9847673081       -3.5165747855        7.3501392844
  C         3.3684665233       -2.3057862786        7.8174078403
  C         3.4160460216       -1.9215001744        9.1668417647
  H         3.0384895143       -0.9850068934        9.5757151638
  H         2.7573033999       -1.7761366490        7.1107997431
  H         3.7979256670       -3.7376248816        6.3386356508
  H         5.2836842067       -5.1402614198        8.0683268348
  H         5.3573945271       -4.3509515967       10.3091486391
  C         1.3874384691        5.7444134121       13.6658326254
  C         0.4741041969        6.5179739468       14.4087039921
  C        -0.6079967664        7.1266380418       13.6769997429
  C        -1.6548001406        7.7494705982       14.4573091233
  C        -2.6976932704        8.3625639013       13.8562834683
  C         0.5706984339        6.8405337667       15.8695179185
  C         1.2674609553        7.9634972686       16.3714072440
  C         1.1034009405        8.4307054359       17.6831699421
  C         0.4473822800        7.6154049235       18.5727233903
  C        -0.2209760711        6.4700000307       18.1156849148
  C        -0.2142861044        6.1309163674       16.8039093807
  H        -1.5120773667        7.7768641908       15.5116760355
  H        -3.5312538008        8.8832081774       14.3909352314
  H         1.8152865474        8.5358532713       15.5966190131
  H         1.5729925359        9.3214915167       17.9681111083
  H         0.5126056764        7.8952112288       19.6614273289
  H        -0.9046624224        5.9090709796       18.7444576878
  H        -0.7908627983        5.2737738945       16.4561705867
  C         1.3630555337        5.7325599611       12.2339036554
  C         2.3742954437        5.0396533287       11.4346929634
  C         3.4995235756        4.5413174893       12.1056224815
  C         3.4830818866        4.4635799407       13.5244174104
  C         2.4597433689        4.9929642013       14.2832721314
  C        -0.6988970191        7.1003973067       12.2824566720
  C         0.4087956694        6.5499098557       11.6136519146
  C         0.5298734817        7.0405284272       10.1689613706
  C         1.4652333188        7.9125616353        9.7382644805
  C         1.4848381186        8.3540144168        8.4006131663
  C         0.4390790969        8.0042677392        7.5456805843
  C        -0.4512918644        6.9939580500        8.0221825875
  C        -0.4028638581        6.5090114910        9.2869608062
  H        -1.0655884441        5.7642913335        9.6077554278
  H        -1.3222808404        6.6358808782        7.3619459654
  H         0.2507548672        8.5502834119        6.6218909825
  H         2.2187851852        9.0909886341        8.1177566923
  H         2.3135649942        8.1055511518       10.4467524697
  C        -1.6882536120        7.8842231933       11.6504024344
  C        -2.7162312513        8.4649263676       12.4138714705
  H        -3.5510093058        8.9910604711       11.9657940602
  H        -1.7005031080        7.9260248601       10.5644033893
  C         2.3242172159        4.5695645908       15.6847602557
  C         1.4314276939        3.5869180616       16.0729826700
  C         1.3823085482        3.1020130794       17.3971077906
  C         2.2471039766        3.5304135251       18.4037994936
  C         3.2461754422        4.4733449347       18.0248085470
  C         3.2682007448        4.9802511376       16.7118289963
  H         3.9028826014        5.8257137882       16.4158154163
  H         3.9595396738        4.8472364050       18.8187670454
  H         2.1696755857        3.1422056302       19.4517049171
  H         0.7010137273        2.2825831943       17.6736283397
  H         0.9070816754        3.0287306295       15.3285510767
  C         4.5944502949        3.7164043332       14.2368242524
  C         5.6763384792        3.2648182457       13.5022231149
  C         5.7150911793        3.4546786013       12.0944105635
  C         4.6416191740        3.9555203369       11.4406993491
  H         4.6622422866        4.1166259764       10.3262514867
  H         6.5827893038        3.1683818600       11.5131696634
  H         6.5065074895        2.6224108979       13.8198131014
  H         4.3338852316        3.5042395594       15.2555147614
  C         2.2800252126        4.6980032431        9.9710647147
  C         1.4015010314        3.6549049898        9.6361025491
  C         1.2486624194        3.2411461138        8.2876858778
  C         1.9779279647        3.8919388304        7.3160564811
  C         2.8927216830        4.9184474310        7.6083284111
  C         2.9837864983        5.3368818854        8.9460293979
  H         3.6766308888        6.1669592564        9.1518225063
  H         3.5148689013        5.4322152152        6.8678821420
  H         1.7652383710        3.6023507696        6.3062395945
  H         0.6242730058        2.4181166066        8.0497506197
  H         0.7963760643        3.2212597897       10.4730620326
