140

  C        16.0242758714       -1.4210052075        0.1103753229
  C        17.0289515543       -0.7893005414        0.8725104297
  C        18.0608591613       -0.1060811231        0.1689935169
  C        19.1435263049        0.5561670807        0.8487062048
  C        20.2124125987        1.1627929199        0.2613480094
  C        16.9446362314       -0.4185133300        2.3307075594
  C        16.1218906863        0.5583382793        2.8674892234
  C        16.2218651100        0.9663133077        4.2351478270
  C        17.1728211983        0.3558462575        5.0937410896
  C        18.0504510257       -0.5905592826        4.5236269498
  C        18.0082826323       -0.8714257138        3.1759933659
  H        18.9603571142        0.6320225180        1.9085897593
  H        20.9569635575        1.5870834540        0.9076975841
  H        15.4139457959        1.0646509137        2.2093129936
  H        15.6202085531        1.8669834131        4.5704005273
  H        17.1085889901        0.5187494806        6.2101157850
  H        18.7241479333       -1.1812941270        5.1595244475
  H        18.6703331310       -1.7005260360        2.8452448995
  C        16.0146405161       -1.3252856358       -1.3466701383
  C        15.0204190994       -2.0932895578       -2.0554426690
  C        13.9388687128       -2.6778260251       -1.3806982482
  C        13.9110721782       -2.7023076854        0.0484813609
  C        14.9859354758       -2.1699545095        0.7811500977
  C        18.0628313429        0.0190341537       -1.2564727087
  C        16.9851487215       -0.5415096397       -2.0378177910
  C        16.8389612223       -0.1973119016       -3.5005210424
  C        15.8572828010        0.6797810168       -3.9683486748
  C        15.8239604843        1.1455223171       -5.2892049961
  C        16.8631659452        0.8108177628       -6.1648168965
  C        17.8614124211       -0.0461287260       -5.7549497855
  C        17.7894373319       -0.5731580827       -4.4840139088
  H        18.4369428805       -1.4399534044       -4.2268337624
  H        18.5502013840       -0.4285642955       -6.5116051696
  H        16.8043952819        1.1281935603       -7.2012815670
  H        14.9303202232        1.6463265261       -5.6537401184
  H        15.0727312851        0.9201320654       -3.2871144818
  C        19.1496185973        0.7813239229       -1.8738479813
  C        20.2334359211        1.2432309493       -1.1527361800
  H        20.9471405295        1.9044120213       -1.5450632102
  H        19.0745313472        0.9186478156       -2.9281417824
  C        15.1825765363       -2.6175242420        2.1744594994
  C        15.9197808159       -3.7847119487        2.4666349191
  C        16.1104717108       -4.1871550113        3.7766536334
  C        15.3930595523       -3.5917244012        4.8289512962
  C        14.4796915840       -2.5193357859        4.4734750753
  C        14.3253290071       -2.0693497303        3.1564744302
  H        13.7687490577       -1.2035487074        2.7884315065
  H        13.8365748581       -2.1045983384        5.2741827026
  H        15.5248679735       -3.9995964896        5.8493060871
  H        16.8590090484       -5.0009592532        4.0285568948
  H        16.2912082552       -4.3591055586        1.5565826061
  C        12.8935621797       -3.4743242881        0.6547025391
  C        11.9199591289       -4.1249289055       -0.0394973274
  C        11.9506223989       -4.1186417884       -1.4807649254
  C        12.9687617119       -3.4170880603       -2.0863340078
  H        12.9736961251       -3.2936746181       -3.1370082040
  H        11.1456212106       -4.6817313060       -1.9830777100
  H        11.1273944057       -4.6487467922        0.4828864200
  H        12.8969579023       -3.4975173095        1.7226073954
  C        15.3254261333       -2.4837229540       -3.4804308364
  C        16.3140762165       -3.5035023647       -3.7717665506
  C        16.3753107186       -4.0767449579       -5.0464150555
  C        15.5797354228       -3.6104061684       -6.0271770872
  C        14.6586162083       -2.6138689398       -5.7635130007
  C        14.4954317945       -2.0880502819       -4.5440114376
  H        13.7383332361       -1.3135589420       -4.3721720407
  H        14.0136461792       -2.3135890158       -6.5844200233
  H        15.7106934908       -3.9252484363       -7.0421562025
  H        17.0948609871       -4.9194878503       -5.2419212119
  H        17.0173445087       -3.7471626563       -3.0072281640
  C        12.6283387378        6.0677381779        0.0073985332
  C        11.6075782302        6.7419654860        0.6993411376
  C        10.3842452206        7.1370168547       -0.0271852930
  C         9.3174846324        7.8600288250        0.6989835411
  C         8.3114436530        8.4852835975       -0.0270979999
  C        11.6131727215        7.0768114910        2.1825134100
  C        12.4382361820        8.1442843255        2.6154805278
  C        12.3797734111        8.5046248199        3.9715293922
  C        11.5139492631        7.9705956888        4.8760353008
  C        10.5962575444        6.9959188926        4.4652289019
  C        10.7664191967        6.4525369582        3.1144785615
  H         9.3550477567        8.0164148909        1.7457379079
  H         7.5260118497        9.0058278382        0.5512481799
  H        13.0270311855        8.7401947067        1.9518364122
  H        13.0318808262        9.3886904516        4.1771647350
  H        11.4490584598        8.3273080855        5.8928682964
  H         9.7983432836        6.6801082784        5.1812997150
  H        10.0864393857        5.6811841229        2.6905128436
  C        12.6051217371        6.1189646758       -1.4996807020
  C        13.5827367782        5.3126069990       -2.1466348656
  C        14.6025548193        4.6898046363       -1.3868752495
  C        14.6756066121        4.7414963378        0.0806030318
  C        13.5972710466        5.3519626312        0.7371439043
  C        10.4273147436        7.2826559929       -1.4670108807
  C        11.6565246997        6.8557065466       -2.1557304052
  C        11.7780627980        7.1784930541       -3.6464574656
  C        12.4487951048        8.3120377322       -4.0386102150
  C        12.1927186790        8.8311126228       -5.3475630756
  C        11.3024121056        8.2008136321       -6.2399922510
  C        10.7145366273        6.9726966151       -5.8378475942
  C        10.8946222238        6.4977199877       -4.5446373814
  H        10.3015192715        5.6646256018       -4.1464318144
  H        10.0741115807        6.5060370328       -6.5352563580
  H        11.1200750748        8.6736894350       -7.1592757081
  H        12.6756986527        9.8162236230       -5.6455974514
  H        13.1565068133        8.7867910274       -3.3401307250
  C         9.3238242635        7.9326933759       -2.1746755763
  C         8.2888941133        8.4793009401       -1.4820398898
  H         7.4060538962        8.9001326272       -1.9251449431
  H         9.4497363503        7.8979756896       -3.2641810497
  C        13.4462663639        4.9061930858        2.2103268842
  C        12.6510081554        3.8172008993        2.4202811407
  C        12.7873923643        3.0802508090        3.6360302049
  C        13.7445943195        3.5281008379        4.6502111259
  C        14.4058636797        4.6315122218        4.3913605989
  C        14.2715270047        5.3764092273        3.2152915254
  H        14.8409699710        6.2718601035        3.0469733523
  H        15.1004483072        4.9940132264        5.1621873867
  H        13.9932734004        2.9921777492        5.5454304886
  H        12.1661621039        2.1685728718        3.8025710120
  H        12.1495809860        3.3879452110        1.5668072603
  C        15.6275896630        3.9680937395        0.8050131131
  C        16.6985379823        3.3931452254        0.0652034646
  C        16.6717542596        3.3467936402       -1.3688921066
  C        15.6749656868        4.0041358811       -2.0633578176
  H        15.7505190170        3.9326515642       -3.1245872771
  H        17.5388712852        2.9411679906       -1.8666987307
  H        17.4368279576        2.8457286961        0.5649158759
  H        15.7326226947        4.0192426417        1.8974827928
  C        13.4862683964        4.8522629999       -3.5363722302
  C        12.6064419567        3.8519527144       -3.9693503537
  C        12.4886630432        3.4144819644       -5.3260508082
  C        13.3214107787        3.9249109447       -6.2962994285
  C        14.1051174679        4.9947890012       -5.9316563246
  C        14.1909513861        5.4687371363       -4.6477742474
  H        14.8538761528        6.3493472795       -4.3488847319
  H        14.5777345700        5.5963446277       -6.7016701571
  H        13.2408730479        3.6099709445       -7.3126617050
  H        11.8016553467        2.5944226457       -5.5138673057
  H        12.0443969546        3.3481691408       -3.1818766008
