140

  C        14.3277474731        0.0312852768        1.2101304679
  C        15.4347031953        0.7325575481        1.8675268192
  C        16.4834750327        1.2240078608        1.0703005974
  C        17.5718615841        2.0112157445        1.6372309220
  C        18.5462769370        2.6072481481        0.8779724249
  C        15.4300731885        1.1421840153        3.3460344599
  C        14.5882583793        2.2626616795        3.7061082634
  C        14.3868963730        2.6436979202        5.0508227111
  C        15.1747811007        1.9251237013        6.0414786867
  C        16.0840168943        0.9703485652        5.6867718703
  C        16.0969420181        0.5105594871        4.3527815871
  H        17.6432212942        1.9898389502        2.7387944990
  H        19.4446854049        3.0421033717        1.3016542840
  H        13.8971637875        2.6779074173        2.9452015466
  H        13.4683232019        3.2030904465        5.3062122700
  H        15.0431083858        2.2465018297        7.0872258651
  H        16.6503848108        0.3329912542        6.3444739086
  H        16.7009106004       -0.4019216725        4.0945281235
  C        14.2538745353        0.1212086890       -0.2843894030
  C        13.2006873010       -0.5731288664       -1.0053751619
  C        12.1396190904       -1.0424436697       -0.1984853485
  C        12.1479101059       -1.0663853015        1.3019930796
  C        13.3312205592       -0.6293008089        1.9489111941
  C        16.3349739112        1.3169080593       -0.4354773596
  C        15.2202866607        0.8583981211       -1.0600110207
  C        15.0445510594        1.2187254571       -2.5498912985
  C        14.2009840517        2.2829877092       -3.0164528881
  C        14.0890759215        2.5984581723       -4.3619051176
  C        15.0516931312        2.1332121460       -5.2451276080
  C        15.9961549052        1.1763838074       -4.8207329183
  C        15.9288268993        0.6517856078       -3.5198145629
  H        16.6122040557       -0.1563238022       -3.1827682918
  H        16.6983078542        0.8238202451       -5.5671492904
  H        14.9631108837        2.2690804335       -6.3333075631
  H        13.2556993111        3.2080112953       -4.6161689685
  H        13.4706877641        2.7650116928       -2.3267116764
  C        17.4547319259        1.8758933301       -1.1914854332
  C        18.4537466393        2.5048583636       -0.5447551183
  H        19.2651289132        2.9782240792       -1.0980189377
  H        17.4865414098        1.8700993459       -2.2356771344
  C        13.4069963471       -0.9943483576        3.3758833643
  C        14.0354364728       -2.2074049866        3.7249986354
  C        14.1073782114       -2.5768017886        5.1031752888
  C        13.4627684189       -1.7331080503        6.0455282410
  C        12.6387959119       -0.6594730796        5.6804653186
  C        12.7674544055       -0.1650081015        4.3625930694
  H        12.2078230035        0.8145313009        4.0305681621
  H        12.0678514875       -0.1311822875        6.4464906816
  H        13.4189324186       -1.9179011867        7.1308152659
  H        14.6699079937       -3.4455950136        5.4932346674
  H        14.6277679615       -2.7823934778        3.0332399742
  C        11.0382404580       -1.7559181959        1.9214948458
  C        10.0720539244       -2.3200686475        1.2119964698
  C        10.1062450969       -2.3758661365       -0.1983261204
  C        11.1403263371       -1.8053426702       -0.8654170648
  H        11.1217952030       -1.9435188732       -1.9535780229
  H         9.3733998201       -3.0036314443       -0.7262690687
  H         9.1347446513       -2.6816006269        1.6432477912
  H        10.8739858281       -1.6785497311        2.9715186395
  C        13.3462566811       -1.0750482770       -2.4715955448
  C        14.3331303692       -2.0102321834       -2.6479477934
  C        14.6059934485       -2.6451259143       -3.8556589353
  C        13.8206243469       -2.3456250588       -5.0047103481
  C        12.8515523173       -1.2903362416       -4.8470058648
  C        12.6055479436       -0.7229406289       -3.5708002560
  H        11.8140946121        0.0253424368       -3.4510769934
  H        12.2347667337       -1.0749233224       -5.7222783945
  H        13.8581240058       -2.7795031376       -5.9799789758
  H        15.3496021229       -3.4232431232       -3.9163545784
  H        14.9515225766       -2.2118854181       -1.8255195146
  C        10.5828438867        7.2099290950        1.4138119780
  C         9.5570910132        7.9139790919        2.1728615911
  C         8.4309047173        8.3871863577        1.4729688529
  C         7.5719166374        9.2634407123        2.1675432811
  C         6.6930738064       10.0087024555        1.4756965448
  C         9.7967570976        8.2477635491        3.6113366618
  C        10.6844347347        9.3000458905        3.7721372337
  C        10.8142163098        9.9913661761        4.9593665718
  C         9.9690996386        9.6655095941        6.0822008864
  C         9.0977782652        8.6327468727        5.9277285016
  C         8.9720705244        7.9431811080        4.7368303393
  H         7.6445777666        9.4228619142        3.2888487366
  H         5.9252735509       10.5756492707        2.0082425204
  H        11.3322833193        9.6402596523        2.9389511654
  H        11.5508841979       10.7533013775        5.0243628252
  H        10.0749833625       10.0917719354        6.9999554126
  H         8.4940601659        8.3564104732        6.7892673394
  H         8.2507900112        7.1893607232        4.7469193743
  C        10.4990513714        7.1319134043       -0.0661665092
  C        11.5893816965        6.5644889681       -0.7541815604
  C        12.7810482159        6.0673862134       -0.1144003038
  C        12.8132862784        6.0882721313        1.3782908568
  C        11.6152388812        6.4177163979        2.0719863004
  C         8.3335733440        8.3437912583        0.0128243407
  C         9.4293820190        7.8402824849       -0.7309244715
  C         9.4486074263        8.1559549926       -2.2629077610
  C        10.3062172695        9.2439411247       -2.6378645364
  C        10.4007073073        9.5884963830       -3.9768980938
  C         9.7032335078        8.7826751546       -4.9834112308
  C         8.9308428709        7.6921981378       -4.5585383914
  C         8.7573551108        7.3396656632       -3.1843008972
  H         8.2678197533        6.4184561540       -2.8670397654
  H         8.3029800378        7.0662633519       -5.2631130525
  H         9.7846603322        9.0555563883       -6.0001081969
  H        11.1181483309       10.3858602592       -4.2809658167
  H        10.8241371242        9.7707779174       -1.8550054140
  C         7.3340208788        9.0558761972       -0.6485865209
  C         6.4997801351        9.9077919091        0.1116953294
  H         5.6416746336       10.3301408823       -0.3616557136
  H         7.2000530465        9.0117215862       -1.7064422048
  C        11.5932057889        6.0750628987        3.5120789539
  C        10.7367816287        4.9818157745        3.9607642316
  C        10.8203844297        4.4837379373        5.2563267063
  C        11.6900255797        5.0176558195        6.2269187457
  C        12.5153348224        6.0495201462        5.8160805702
  C        12.5178780843        6.6018093877        4.4721312172
  H        13.1548668273        7.4609920150        4.3904919258
  H        13.2987210245        6.5130415277        6.4290499620
  H        11.8159277574        4.6410307555        7.2434975065
  H        10.1748182835        3.6815754891        5.6263024117
  H        10.0860281882        4.5019960376        3.2265818082
  C        13.9632342498        5.4593327466        1.8682052869
  C        14.8887797812        4.8084473936        1.0686811801
  C        14.8325901097        4.8076275501       -0.2838775665
  C        13.7694023981        5.3745798671       -0.8745603780
  H        13.6141711790        5.2976618201       -1.9906518836
  H        15.5761197605        4.2458306534       -0.7973990974
  H        15.7157480757        4.2800237732        1.5066666912
  H        14.1439979270        5.3261963672        2.9711754505
  C        11.4452387788        6.1621287515       -2.1038985419
  C        10.6872155227        4.9912184805       -2.3675360103
  C        10.7086226574        4.4827989417       -3.6837317804
  C        11.4076114365        5.1354604216       -4.7343466101
  C        12.2862705335        6.1542834986       -4.4490250189
  C        12.1569042065        6.7320795664       -3.1735140678
  H        12.7248201346        7.6508633673       -2.8128194945
  H        13.0016943308        6.4179432899       -5.1952114270
  H        11.2919017763        4.7876857734       -5.7865409532
  H        10.1545070387        3.5872594827       -3.8586716565
  H        10.1461514262        4.4124392508       -1.6150822080
