140

  C        15.7745219724       -1.7444070369        0.1132148253
  C        16.7543487610       -1.0563121618        0.8521730488
  C        17.7878121389       -0.3344019785        0.2132272563
  C        18.7693380801        0.4372841839        0.9313365992
  C        19.8252252254        1.0164786244        0.2723288339
  C        16.7449786719       -0.8707048775        2.3674912478
  C        16.0388349604        0.2308614020        2.7911455541
  C        16.2205175437        0.7911719795        4.0932450384
  C        17.0932413540        0.1651858024        5.0004477548
  C        17.7556799889       -1.0055434764        4.5903219501
  C        17.5439089399       -1.5695297189        3.3097468575
  H        18.6895798139        0.5273212871        2.0300160166
  H        20.5519873478        1.5471723756        0.7607347189
  H        15.2985496594        0.6585019201        2.1306843759
  H        15.8173414039        1.8086401283        4.3082465034
  H        17.3259872355        0.6874076909        5.9378368823
  H        18.4838323548       -1.4362926707        5.2486085501
  H        18.0619448921       -2.4102997224        2.9623025367
  C        15.7712883659       -1.5275073040       -1.3601272173
  C        14.6653424045       -2.1294473243       -2.0596043450
  C        13.5411005043       -2.6916715359       -1.3693142277
  C        13.6068308036       -2.9111268622        0.0249436041
  C        14.7707178349       -2.4671231723        0.7328586000
  C        17.9363535448       -0.2999660461       -1.2255253854
  C        16.8555395200       -0.8707678873       -2.0179925701
  C        16.8447821154       -0.4101639669       -3.5132169643
  C        16.1434863928        0.7460643044       -3.7031859371
  C        16.1362121141        1.3010778114       -4.9684494395
  C        16.8572044003        0.7859532901       -6.0637701379
  C        17.6416786861       -0.4131269404       -5.8507408349
  C        17.5559705311       -1.0215781151       -4.5916439559
  H        18.1952554238       -1.9304395056       -4.3937396118
  H        18.2490997773       -0.7776038334       -6.6745604891
  H        16.8274232401        1.2807444196       -7.0445448134
  H        15.4974865760        2.1566450371       -5.1141930837
  H        15.6700049707        1.2220482075       -2.8449381830
  C        19.0433558839        0.3019197808       -1.8927207607
  C        19.9761889944        0.9782046964       -1.1506285776
  H        20.8429620427        1.4937829656       -1.7081995515
  H        19.0774625817        0.2842479004       -2.9166841342
  C        14.8214733640       -2.8756135568        2.1888599307
  C        15.3326049371       -4.0920435324        2.5419875587
  C        15.2943660961       -4.6210478137        3.8529714183
  C        14.5349073577       -3.9673783595        4.8498563287
  C        13.9144832291       -2.7351638483        4.4869293062
  C        14.0557004435       -2.1857084705        3.2107070912
  H        13.5497788032       -1.2680263937        2.8370189007
  H        13.2705671482       -2.2195969603        5.2044687757
  H        14.3268155732       -4.4057693460        5.7997588777
  H        15.7907755039       -5.5998917632        3.9700276973
  H        15.8245732523       -4.6729242153        1.8810420900
  C        12.5410078049       -3.7208813515        0.6071105659
  C        11.5413729919       -4.3489939788       -0.0539275021
  C        11.4661759029       -4.0906097188       -1.4159766254
  C        12.4377388824       -3.3231054219       -1.9982504400
  H        12.3375842977       -3.2388459342       -3.0495210364
  H        10.6572018685       -4.5136531758       -1.9825401019
  H        10.8245328925       -4.9250437358        0.4941901352
  H        12.6546508429       -3.8758006739        1.6565171272
  C        14.6883951137       -2.4296264452       -3.5064073527
  C        15.5776278079       -3.3755335188       -4.0155302917
  C        15.4892869631       -3.6840872352       -5.3581931982
  C        14.6406827685       -2.9715374908       -6.2356364728
  C        13.6670244749       -2.1736705580       -5.6844903117
  C        13.7029720564       -1.8774791710       -4.3831406211
  H        12.9931679375       -1.1588652860       -3.9299486255
  H        12.8804459537       -1.7784946525       -6.3185082038
  H        14.7012559151       -3.1865477240       -7.3167473119
  H        16.0716492817       -4.5164099744       -5.7286124953
  H        16.2578179858       -3.9795336452       -3.3691813855
  C        12.5226775092        5.6360623156        0.4262603739
  C        11.4097610241        6.3431157174        1.0719926537
  C        10.3043200823        6.8547478240        0.3280364251
  C         9.1620691395        7.5164118190        0.9937370834
  C         8.2010713231        8.2106459416        0.2968287828
  C        11.3885517982        6.7073787079        2.5370394293
  C        12.1550857420        7.7974026416        2.9660747203
  C        12.2140270932        8.1626184143        4.3591527892
  C        11.1745087993        7.6101430236        5.1765650488
  C        10.1983689666        6.7053467676        4.6845568477
  C        10.3772198203        6.1370499429        3.3684714556
  H         9.2140499602        7.3221992834        2.0240409656
  H         7.3838088317        8.7504614714        0.7361378566
  H        12.8106970968        8.1858985179        2.2775056505
  H        12.9582179246        8.8738161165        4.6251437338
  H        11.0337465539        7.7979386048        6.2637151278
  H         9.3398788614        6.4349994095        5.3379619407
  H         9.7828059322        5.2511361143        3.0722665787
  C        12.4819977525        5.5879480473       -1.0674579678
  C        13.5583138069        4.9735278216       -1.7481020627
  C        14.6247395050        4.4244612579       -1.0327992618
  C        14.6134893759        4.4820608859        0.4196881607
  C        13.5507136730        4.9900526719        1.1151175664
  C        10.3319643910        6.8913528678       -1.1172179048
  C        11.4746719316        6.2806869761       -1.8215368828
  C        11.5378625817        6.6640571855       -3.2778435315
  C        12.2427913798        7.8137257059       -3.7440932600
  C        12.1030490628        8.3274394821       -5.0601183252
  C        11.1791655681        7.7330213440       -5.8999048172
  C        10.4116660072        6.6179527095       -5.4928513609
  C        10.6132785029        6.1439941197       -4.1865377014
  H        10.0078309830        5.3340572096       -3.8825583681
  H         9.6327779298        6.2280452390       -6.1774830106
  H        11.1738466900        8.1048668388       -6.9931706528
  H        12.7388080608        9.1259300296       -5.4278270572
  H        12.8692148234        8.3136808619       -3.0482281593
  C         9.3562848721        7.6575274599       -1.8077878473
  C         8.3226132294        8.2884099490       -1.1386361086
  H         7.6299506150        8.8256737545       -1.7950209672
  H         9.3874906493        7.7531632029       -2.8807357025
  C        13.5038142004        4.7033802380        2.6213468866
  C        12.7163974262        3.6054325610        3.0998227327
  C        12.7945295614        3.1937961944        4.4355563473
  C        13.7724637321        3.8714550245        5.2721546285
  C        14.4908158886        4.8835282597        4.7933797596
  C        14.3723036496        5.3834660426        3.5002600744
  H        14.9393402773        6.2355656694        3.0621896086
  H        15.1914199748        5.2789225177        5.4981018243
  H        14.0661370602        3.6174989800        6.3449257015
  H        12.1346286723        2.3998777707        4.7844877710
  H        11.9818778045        3.1469426097        2.4061698494
  C        15.6614045472        3.8226406011        1.0946465698
  C        16.6557054532        3.1682626050        0.3847537701
  C        16.6943274871        3.1498859355       -1.0479897520
  C        15.7660870744        3.8173815810       -1.7419986308
  H        15.7435564111        3.9678839308       -2.8125229280
  H        17.5677982421        2.7729353151       -1.5854528700
  H        17.4071533019        2.5589404454        0.9808086621
  H        15.7451485899        3.8433280504        2.2126258691
  C        13.5563886811        4.6974961100       -3.2313117109
  C        12.7923748890        3.6482949896       -3.7424000924
  C        12.7232788852        3.3112260538       -5.1077969859
  C        13.4718498225        3.9986542800       -6.0417127945
  C        14.2533667706        5.0324596698       -5.5063225985
  C        14.2867704452        5.4112058480       -4.1886716923
  H        14.8653659547        6.2554568208       -3.8311109197
  H        14.8530748460        5.6528851961       -6.2620234009
  H        13.6161874672        3.7469399263       -7.1361598399
  H        11.9590370822        2.6020877844       -5.3825401354
  H        12.1247602026        3.1206042031       -2.9223917442
