140

  C         3.5532965238        0.2914999065       14.3580110615
  C         4.4503380853        1.1254277428       15.0742618679
  C         5.5881812756        1.6384841910       14.2983679923
  C         6.6583893564        2.2697159957       15.0231303508
  C         7.6646420882        2.9379659861       14.3591225974
  C         4.3169562841        1.4566979145       16.5457317644
  C         3.4766041257        2.5645542457       16.8737428331
  C         3.2822048426        2.9227851430       18.2253436921
  C         3.9642842676        2.1437551582       19.2351250318
  C         4.8284860729        1.1008418953       18.8728450157
  C         4.9407784425        0.7417370584       17.5538202412
  H         6.6203852843        2.2752731952       16.1063092559
  H         8.4377508465        3.5076030230       14.9241131596
  H         2.9689298849        3.1961975496       16.1285960174
  H         2.6281223468        3.7923716653       18.3866673990
  H         3.8892054676        2.4769017774       20.2694678669
  H         5.1890563992        0.5440717115       19.7308909591
  H         5.6834271077       -0.0767636533       17.2751828667
  C         3.5975861532        0.2450125016       12.8669252508
  C         2.6081253314       -0.5179621917       12.1949535398
  C         1.4149284397       -0.8860450986       12.8483288118
  C         1.4342960173       -0.9334159007       14.3593376616
  C         2.5144484272       -0.4143064844       15.0785749395
  C         5.7279141172        1.5137421880       12.8896143048
  C         4.7245871671        0.7876125743       12.1796943598
  C         4.5299997443        1.1843363269       10.7353303868
  C         3.6479240165        2.1400270970       10.2539937527
  C         3.7963901498        2.7232183473        8.9872432209
  C         4.8094291912        2.2967767657        8.1476255381
  C         5.7221097869        1.3497596749        8.5520763719
  C         5.5363240421        0.8129461602        9.8343657876
  H         6.3188677510        0.1211083404       10.2014931298
  H         6.4455337244        0.9424391609        7.8796983910
  H         4.9411888051        2.7997301499        7.1733135761
  H         3.0387893233        3.4211969419        8.5931802229
  H         2.8494433493        2.3732865919       10.9970957041
  C         6.7519482996        2.2127257771       12.2028647793
  C         7.6579615121        2.9328943011       12.9465822818
  H         8.3732854917        3.6023081931       12.4576295714
  H         6.8074916034        2.1926010462       11.1052466637
  C         2.5051964171       -0.7570441899       16.5300210806
  C         3.2405532253       -1.7794989577       17.0027518572
  C         3.2186786533       -2.1890670528       18.3265909644
  C         2.2533558571       -1.7166183705       19.2204704132
  C         1.3737131995       -0.7050318606       18.7102108631
  C         1.4740145790       -0.2589406809       17.3752477633
  H         0.9239649869        0.5837438023       17.0347746788
  H         0.6435319920       -0.2314111692       19.3923449974
  H         2.2259857804       -2.1450022254       20.2146519651
  H         3.8861201786       -2.9994748673       18.6571496770
  H         3.8735348612       -2.2665266466       16.2693368139
  C         0.2713247869       -1.5007977313       14.9695748486
  C        -0.7174037245       -2.1195764161       14.2919557911
  C        -0.6161516551       -2.2070086939       12.8939769581
  C         0.3379663230       -1.5296443106       12.1838159455
  H         0.3329408566       -1.6773091047       11.1137459441
  H        -1.4183726971       -2.6848373837       12.3374232596
  H        -1.6437439570       -2.5018090783       14.7099444952
  H         0.2424725581       -1.4619706780       16.0585921685
  C         2.8037488161       -0.9813187823       10.8296259596
  C         3.7082069695       -2.0238612512       10.6255738500
  C         3.9528011590       -2.6245244863        9.4035313704
  C         3.2277704999       -2.2402092829        8.2704073145
  C         2.3548087962       -1.1959596397        8.4320385249
  C         2.1393502159       -0.5358262447        9.7185962287
  H         1.3528296318        0.2459958207        9.8271104435
  H         1.8249739627       -0.8990394151        7.5741683663
  H         3.3730533882       -2.6432251454        7.2919363671
  H         4.6129877313       -3.5144171128        9.4217396996
  H         4.2354717930       -2.3505466928       11.5284102195
  C        -0.0210036099        7.4436544162       13.9757059651
  C        -1.1017125279        8.0709515723       14.7022532120
  C        -2.1698855760        8.6421442948       13.9009251978
  C        -3.3252991105        9.2058571277       14.5230333862
  C        -4.2348052536        9.9577578508       13.8685500626
  C        -1.0082222440        8.4867691747       16.1053017200
  C        -0.0160010814        9.3936153043       16.3489873072
  C         0.2928228138        9.8129169084       17.6289764563
  C        -0.5658032885        9.5305599452       18.6477338211
  C        -1.6585550330        8.6867059857       18.3776232784
  C        -1.8745695931        8.1660773932       17.1318741722
  H        -3.4161209029        9.0345363267       15.5859874311
  H        -5.0487587591       10.3163561354       14.4689132498
  H         0.6362904112        9.7341386368       15.5472024924
  H         1.1354851974       10.4617172991       17.8222074926
  H        -0.3492835239        9.8918522236       19.6523099301
  H        -2.4049927996        8.4753324070       19.1608902214
  H        -2.6383536361        7.4088527977       17.0064434743
  C         0.0882387022        7.4403831026       12.5064546614
  C         1.0815971008        6.7333513320       11.8152241932
  C         2.1004419417        6.1172642845       12.5441666056
  C         2.0320549010        6.0864016343       13.9308305744
  C         0.9712634491        6.7458475059       14.6811584400
  C        -2.0259671889        8.7598519454       12.4861339146
  C        -0.9843034055        8.1278075277       11.8030521030
  C        -1.0442285376        8.3697136192       10.2907148705
  C        -0.3525730274        9.4060941263        9.6664567588
  C        -0.5395287508        9.7949491620        8.3617928756
  C        -1.4679572923        9.1062040742        7.5840439586
  C        -2.1809174270        8.0491372788        8.1705116143
  C        -2.0445662706        7.7076840703        9.5002260495
  H        -2.5886231615        6.8396706683        9.9085739484
  H        -2.8691412906        7.5550472915        7.5676368381
  H        -1.7268270550        9.3809693127        6.5113010010
  H         0.2133309777       10.4981573296        7.9899163212
  H         0.3553765989        9.9772091231       10.2618204317
  C        -3.0986162559        9.4990893071       11.7685367723
  C        -4.0712016475       10.2152558417       12.4630831775
  H        -4.8163652696       10.7989166474       11.9437181380
  H        -2.9864244743        9.8013604140       10.7604739931
  C         0.7650994705        6.2567022432       16.1040773226
  C        -0.1085508400        5.1627707252       16.3433033001
  C        -0.3735905592        4.6895174699       17.6250796135
  C         0.1627711611        5.3704531369       18.7301219298
  C         1.0729732621        6.4500252403       18.4817990326
  C         1.3807242157        6.8701220233       17.1474962864
  H         2.1206204064        7.6617951119       16.9898048363
  H         1.5256320094        7.0597533209       19.2475603326
  H        -0.0805608356        5.0185689503       19.7420082167
  H        -1.0540544249        3.8174997194       17.7853930611
  H        -0.6197987290        4.6909687229       15.5042661668
  C         3.0446962042        5.4066082413       14.6550389731
  C         4.1109897529        4.7527421346       14.0151729523
  C         4.1277454395        4.7378641565       12.5885201968
  C         3.1028528994        5.2558232600       11.8677804134
  H         3.1950797647        5.2731645693       10.7908502124
  H         4.8553976319        4.2117192916       12.0084884900
  H         4.8147927874        4.1557173228       14.5961186339
  H         3.1075316411        5.3334714623       15.7520974859
  C         1.0264541512        6.3878162104       10.3289030681
  C         0.3510585293        5.2353316582        9.8783958075
  C         0.2855485947        4.8947027004        8.5186451302
  C         1.1157980930        5.5634765366        7.6235542195
  C         1.8636053163        6.6259601121        8.0713125262
  C         1.8043349943        7.0711412181        9.3894403582
  H         2.2289718585        7.9852005220        9.7356606649
  H         2.5331372476        7.0777345130        7.3337811882
  H         1.1386524557        5.2513180280        6.5589421828
  H        -0.3522356807        4.0602804944        8.2230054366
  H        -0.2582646793        4.6480363345       10.5650520116
