140

  C        14.3424182009       -0.0958076862        0.9026676562
  C        15.4436619119        0.5331587141        1.5241915567
  C        16.4287771209        1.0791497024        0.6953013481
  C        17.6185192714        1.7053374999        1.2331680693
  C        18.5558263680        2.3421744487        0.3916692542
  C        15.3538636171        1.1060601960        2.8622049153
  C        14.4966415988        2.2746194529        2.8748896875
  C        14.2634857875        2.9072192830        4.1096477692
  C        14.9298901364        2.5828278157        5.2565605331
  C        15.8654753298        1.4900575491        5.2219925668
  C        15.9942808994        0.7512319310        4.0414541013
  H        17.8795409720        1.6095308041        2.2834944616
  H        19.4624095754        2.8318606348        0.7308475524
  H        14.1208932360        2.6233640329        1.9096325837
  H        13.6035022157        3.7362231253        4.1106656659
  H        14.8716949723        3.0788103380        6.2215925885
  H        16.3952718614        1.1485588034        6.1362771743
  H        16.6621763516       -0.0704137218        4.0315776343
  C        14.1370929955       -0.1313127351       -0.5891849419
  C        13.0508230609       -0.8097138451       -1.1137815145
  C        12.0626297451       -1.3304307014       -0.2627223990
  C        12.2529850682       -1.3731556451        1.2037095433
  C        13.4455141604       -0.8680836026        1.7438119164
  C        16.3316553545        1.0664883144       -0.7692313985
  C        15.1486693224        0.5087578875       -1.3779694319
  C        15.1801862878        0.7378203771       -2.9007832157
  C        14.5049659017        1.9058618459       -3.3743652931
  C        14.5156984326        2.1398991403       -4.7600727569
  C        15.1514045811        1.2944689559       -5.6714729318
  C        15.9200781748        0.2661742138       -5.1715888405
  C        15.9368399658        0.0036753226       -3.8061633621
  H        16.5092727621       -0.8492379898       -3.5099768011
  H        16.5723106224       -0.3861995267       -5.7682389411
  H        15.1205901372        1.5026028546       -6.7698715306
  H        14.0224018640        3.0367023615       -5.1028423522
  H        14.0317101543        2.6458862470       -2.7346955818
  C        17.2366160874        1.7341987149       -1.5831320891
  C        18.3064733879        2.4373983546       -1.0303284603
  H        18.9976124214        2.9925922416       -1.6717354677
  H        17.1265642684        1.7496905708       -2.6938504123
  C        13.5207984617       -1.0947622608        3.2118790927
  C        14.1849473152       -2.2338725690        3.7480656847
  C        14.2163333157       -2.5173865560        5.0714903974
  C        13.6305677254       -1.6849591536        6.0057851574
  C        12.8249242518       -0.6077510201        5.5368251766
  C        12.8238127133       -0.3385375093        4.0735752503
  H        12.3948459573        0.6095751633        3.8019744823
  H        12.4618448198        0.1340910408        6.2679754625
  H        13.6881224876       -1.9344055692        7.1102473204
  H        14.8129898976       -3.3002704070        5.5137384147
  H        14.7087282106       -2.8485449946        2.9858698000
  C        11.2212562900       -2.1134860617        1.9625556641
  C        10.0997373694       -2.5919808456        1.3911233922
  C         9.8225301078       -2.4270353855       -0.0094677948
  C        10.7546005980       -1.7954934922       -0.7904373193
  H        10.6332524937       -1.5542753967       -1.7953948147
  H         8.9303273140       -2.7664308410       -0.5798665503
  H         9.3824641820       -3.1610672134        2.0397979173
  H        11.3622633526       -2.2674120885        3.0515129128
  C        12.9082029098       -1.1635736946       -2.6327473625
  C        13.6426345082       -2.3515837311       -2.8975264556
  C        13.5078249854       -2.9796224486       -4.1454768922
  C        12.6537386090       -2.4180083104       -5.1209168952
  C        11.8922932900       -1.2729426099       -4.8781977674
  C        12.0624240275       -0.6220163218       -3.6169563954
  H        11.6605740639        0.3533799425       -3.4296387493
  H        11.2740154974       -0.8193473878       -5.6432792988
  H        12.4876175177       -2.8711087434       -6.1334649051
  H        14.1020777454       -3.8935362226       -4.3585746088
  H        14.1655200902       -2.8771068477       -2.1275753545
  C        10.8042927703        6.8953292979        1.0846536822
  C         9.8312426990        7.6725734003        1.8596498959
  C         8.7624441640        8.3324582598        1.1246606425
  C         7.8235106210        9.1355245624        1.9423829555
  C         6.8075075379        9.7869847014        1.4647625092
  C         9.9361716787        8.0235620162        3.3704566804
  C        10.6536837207        9.2211086567        3.6738388265
  C        10.5845718179        9.7402910962        4.9554052890
  C         9.7798056635        9.2314629663        5.9748063376
  C         9.0536280711        8.0340633392        5.6842306313
  C         9.1077621264        7.4728991625        4.3996524493
  H         8.1177150676        9.2931071592        2.9919219512
  H         6.1065903632       10.3746268092        2.0646518792
  H        11.2782337478        9.7016848690        2.9643119017
  H        11.1651414859       10.5971830448        5.2922627733
  H         9.8369547671        9.6711740948        6.9772299558
  H         8.4239590370        7.6230052372        6.5194875692
  H         8.4857232302        6.5689594067        4.1780317848
  C        10.7435245970        7.0390532096       -0.3641850869
  C        11.8041973084        6.3993408253       -1.1166787010
  C        12.9534751627        5.8577404965       -0.4972197837
  C        13.0662103442        5.7616645361        0.9196921300
  C        11.9045343561        6.1686647153        1.6767710069
  C         8.6596305154        8.3691829977       -0.2882456166
  C         9.6647163314        7.7179183090       -1.0211818212
  C         9.8095595398        8.1516139847       -2.4270041149
  C        10.4715987492        9.3397265027       -2.7664192008
  C        10.5051544472        9.8603693785       -4.0479182938
  C         9.9057949186        9.1730509514       -5.1067826940
  C         9.0724181059        8.1009665833       -4.8173052422
  C         9.0379592305        7.5720756924       -3.5083146118
  H         8.5298682127        6.6130317834       -3.2978165260
  H         8.4689711751        7.5298877826       -5.5586777330
  H        10.2048731996        9.4695782708       -6.1284493920
  H        11.0254336932       10.7878116749       -4.3092440763
  H        10.9378348295        9.8864052927       -1.9237775517
  C         7.4892281704        9.0533228437       -0.8380684288
  C         6.5287165755        9.6975216916       -0.0274515293
  H         5.6213568137       10.1726002043       -0.4904342261
  H         7.1755019567        9.1585269901       -1.8867781957
  C        11.8592808046        5.9701346385        3.1464260606
  C        10.9663317680        5.0034680891        3.6369223032
  C        10.9783296871        4.6428786342        4.9921866064
  C        11.7866016023        5.3201638550        5.8917612295
  C        12.5605396187        6.3846976147        5.4542164187
  C        12.6436107019        6.7223615158        4.1088247925
  H        13.3572131752        7.4987780268        3.7691579430
  H        13.2177140653        6.9839247191        6.0532947841
  H        11.8649444510        4.9827882603        6.9387188506
  H        10.3746849912        3.8146309698        5.3732847587
  H        10.3026394825        4.5199818959        2.9554146712
  C        14.1735544099        5.2388026930        1.5331749131
  C        15.1368369249        4.6907820674        0.7734851866
  C        15.0447130516        4.6330986415       -0.6864818508
  C        13.9996442674        5.2400776517       -1.3533173692
  H        13.9343207327        5.0903762431       -2.4595939506
  H        15.7845599034        4.0574781821       -1.1661440996
  H        15.8984930717        4.1830000605        1.3070029564
  H        14.2370587251        5.2293849007        2.6229307452
  C        11.7847152626        6.1882545395       -2.6098271047
  C        11.1279523387        4.9622247132       -3.0005328050
  C        11.1613966435        4.5733690127       -4.3317467562
  C        11.7777354595        5.3529178921       -5.2982201978
  C        12.5265343800        6.4874437489       -4.9183227178
  C        12.4925336204        6.9003196178       -3.5543825351
  H        13.0180196441        7.7649793339       -3.2878885942
  H        13.0969706580        6.9785249968       -5.7147647338
  H        11.7185551156        5.0652243309       -6.3901628813
  H        10.7033246284        3.6123620064       -4.5202507585
  H        10.6594790866        4.3328369257       -2.2571273123
