140

  C         4.6630568893       -1.1519778593       13.9546784241
  C         5.7801228526       -0.6704904651       14.7480459296
  C         6.8091000670        0.0546719770       14.1435753786
  C         7.7590630616        0.8500955220       14.9181331844
  C         8.7854953710        1.4573783113       14.2767876149
  C         5.5811892522       -0.1944610014       16.2078733954
  C         4.5561379109        0.7656425533       16.3608739874
  C         4.3834573644        1.5102385187       17.5743941934
  C         5.2280115443        1.0526170989       18.6481612060
  C         6.1796912131        0.0802878718       18.4721788407
  C         6.3942486860       -0.5663661678       17.2650338363
  H         7.7057623958        0.8904842259       16.0060662180
  H         9.4875888360        2.0882607997       14.7613281398
  H         4.0959799265        1.0002283171       15.4037730429
  H         3.5917300013        2.2839130276       17.7518640792
  H         5.0254712970        1.3995912472       19.6404646515
  H         6.8570586225       -0.1882176156       19.3860227072
  H         7.2822021580       -1.2927399239       17.2739058954
  C         4.6227263962       -1.0548473022       12.5014359013
  C         3.5368844348       -1.6341101735       11.7606088843
  C         2.4091941284       -2.1542272328       12.4689567458
  C         2.4207802335       -2.2004359019       13.9159814942
  C         3.5862414409       -1.7799814860       14.6386183881
  C         6.8666091207        0.0627520740       12.6583405723
  C         5.8002323247       -0.4456595284       11.8573905570
  C         5.7178031319       -0.0801662789       10.3955665538
  C         4.7404231493        0.7878758130        9.7998304713
  C         4.7727188354        1.2172459780        8.4993120543
  C         5.8538204694        0.8929087599        7.7219659446
  C         6.8180071807       -0.0508554098        8.1407628861
  C         6.7242634001       -0.5485739963        9.4579283078
  H         7.4677549924       -1.2557577955        9.8484554722
  H         7.6201142694       -0.3660441494        7.4819899483
  H         5.9905099915        1.4171652568        6.7098404279
  H         4.0908395093        2.0662394195        8.3242864404
  H         3.8677657893        1.1589785002       10.2610072145
  C         7.9150914437        0.8577469614       12.0989968813
  C         8.8241248317        1.5061992187       12.8958688507
  H         9.5733814095        2.1969017985       12.5218560931
  H         8.0885250844        1.1534313513       11.0261427893
  C         3.5523516195       -2.0658844891       16.1339537280
  C         4.3096920873       -3.0470901692       16.8114874492
  C         4.2078841174       -3.2553226245       18.2148075462
  C         3.3196423063       -2.4876871527       18.9533460351
  C         2.6080732552       -1.5026786899       18.2842214476
  C         2.5986556908       -1.3610835573       16.8846582667
  H         1.9753028015       -0.5984637150       16.3376195092
  H         1.9970022831       -0.7855037053       18.8612214512
  H         3.2156524860       -2.5502621915       19.9990929510
  H         4.7626168528       -4.0470873748       18.7126342343
  H         4.9406816350       -3.6911126886       16.2991855214
  C         1.2268273053       -2.7508253773       14.5204137234
  C         0.1395712331       -3.2282293898       13.8099101267
  C         0.2486581773       -3.3747321843       12.4187675952
  C         1.3728461185       -2.9207817130       11.7879200342
  H         1.4909926460       -3.1743018175       10.7688100262
  H        -0.5599060281       -3.9059011035       11.9000624973
  H        -0.6919434953       -3.7150101643       14.3358471392
  H         1.1639880270       -2.6831089570       15.5743272869
  C         3.5267892915       -1.9802176971       10.3469002212
  C         4.4816935890       -2.9176823820        9.8545290187
  C         4.4078797318       -3.3981179440        8.5595275895
  C         3.3853224782       -3.0170253556        7.7168201117
  C         2.3621325646       -2.1935629216        8.1452538057
  C         2.5043446633       -1.5781082616        9.4495850609
  H         1.6794991969       -0.9646711694        9.7868456286
  H         1.4272286151       -2.0868042481        7.6173658872
  H         3.3771705369       -3.4195625400        6.6559820982
  H         5.2406311434       -3.9057060278        8.1511993802
  H         5.1898220266       -3.3316431405       10.5876095413
  C         0.8727812513        6.1719836870       13.7418601054
  C        -0.1306315869        6.9264844924       14.4059493953
  C        -1.1669445110        7.5511504932       13.7464235250
  C        -2.2590221940        8.1813300516       14.4351476785
  C        -3.2517745820        8.8469819625       13.7848066676
  C        -0.0190141354        7.2353243201       15.8820530784
  C         0.7995564342        8.3459500851       16.2338110803
  C         0.7487561237        8.9297978068       17.5236214650
  C        -0.0041761354        8.2828455631       18.5114516099
  C        -0.7694576929        7.1496133285       18.1755212251
  C        -0.7915571279        6.6476390900       16.8301750413
  H        -2.2621256678        8.1497350302       15.4911033388
  H        -4.0349293368        9.2918795853       14.3903699020
  H         1.4771673957        8.7904531042       15.5188859010
  H         1.3195896474        9.7936581570       17.7447893043
  H         0.1657840155        8.5997547059       19.5385662802
  H        -1.3143208661        6.7032794398       18.9984289832
  H        -1.3435748469        5.7990793585       16.5408325553
  C         0.8564767343        6.2293974655       12.2444124043
  C         1.9736616117        5.5875448895       11.4644995623
  C         3.0293980885        4.9480157334       12.2249812975
  C         2.9708400262        4.8816179798       13.6644297010
  C         1.9015539545        5.3897590779       14.3642468569
  C        -1.1450654135        7.6262391565       12.3226538174
  C        -0.0705631104        7.0666918746       11.5991584622
  C        -0.0097805859        7.4947684814       10.1817904725
  C         0.7888015219        8.5697637322        9.7749064198
  C         0.8461733568        8.9726776544        8.4318489540
  C         0.1693847628        8.2605859945        7.4496790140
  C        -0.7117616405        7.2337690649        7.8743107148
  C        -0.7847383100        6.8642660874        9.1982827203
  H        -1.5576023509        6.1483341777        9.5057177617
  H        -1.4069957406        6.7326210393        7.1705294913
  H         0.2345526740        8.4751935751        6.4128873534
  H         1.2927716488        9.9162104634        8.1743460072
  H         1.3812747482        9.0745296124       10.5095949562
  C        -2.2107942892        8.3697359468       11.6522166223
  C        -3.2153746311        8.9504494770       12.3848937827
  H        -4.1106693299        9.3278617525       11.7814588597
  H        -2.2720469838        8.4189875760       10.5993481841
  C         1.8022964929        5.0106506491       15.8428500159
  C         0.8421114517        4.1266318736       16.2635240590
  C         0.8087223115        3.6812153686       17.6161637983
  C         1.7015038187        4.2408748149       18.5503273282
  C         2.7558058425        5.0992806821       18.1205690268
  C         2.7583315000        5.5448908458       16.7887544011
  H         3.5337778631        6.1374255212       16.3717996308
  H         3.4535735154        5.4759125556       18.9241958369
  H         1.7478764551        3.9340722587       19.6210754290
  H         0.1738265635        2.8100085367       17.9302616584
  H         0.1307818870        3.5969738122       15.5297359019
  C         4.0353153648        4.1480488429       14.3535340890
  C         5.0624986909        3.5636012915       13.6964648913
  C         4.9634328666        3.5184367654       12.2323393996
  C         3.9115485952        4.0884564160       11.5867267628
  H         3.7997561225        4.0627508240       10.4845374689
  H         5.7291697424        2.9273131993       11.6619203397
  H         5.9008522404        3.0749993103       14.2134035249
  H         4.0160275283        4.1025500066       15.4359571540
  C         1.7804392840        5.1961655790       10.0165682067
  C         0.9029378391        4.0911041757        9.7948743769
  C         0.9763690633        3.4397751422        8.5347487582
  C         1.8419394004        3.8333001388        7.5505279945
  C         2.7183143655        4.9384421248        7.8013508927
  C         2.6622397885        5.6204148699        9.0100676567
  H         3.3403500273        6.3821529322        9.1968355236
  H         3.3853781403        5.1912595860        6.9525078235
  H         1.7264181927        3.4127961156        6.5480375532
  H         0.1961287950        2.6648160923        8.3104124513
  H         0.2473880073        3.7810897207       10.5921570055
