140

  C         5.0586021522       -0.1029779633       16.0138167323
  C         6.0721035991        0.7124288440       16.6918931372
  C         7.1611120791        1.2772519330       16.0176917855
  C         8.1249843505        2.0688819504       16.7122224775
  C         9.1330223484        2.6975096193       15.9929103148
  C         5.9134699903        1.0399139164       18.1500124648
  C         5.1419837143        2.1049095900       18.5106118009
  C         5.0374296492        2.6612884504       19.7904498937
  C         5.7555712541        2.0207569773       20.7692485344
  C         6.5585897539        0.9107813890       20.4960552608
  C         6.7355856461        0.4683829555       19.1650180327
  H         8.2092407383        2.0686328041       17.7930336626
  H         9.7983205957        3.4115436596       16.5582166701
  H         4.4212905103        2.5277238894       17.7903298690
  H         4.3450259393        3.5112490429       19.9557355537
  H         5.8440699274        2.5623571811       21.7385607947
  H         7.1488272047        0.3726355609       21.2297649645
  H         7.4217547010       -0.3499173111       18.9085732758
  C         5.0569866914       -0.1288813650       14.5556173803
  C         4.0427870784       -0.9251430985       13.8292987723
  C         2.8800195402       -1.2703876327       14.4848212210
  C         2.8675023730       -1.2386221267       15.9504932723
  C         4.0193389437       -0.8023725367       16.6640663868
  C         7.1843802682        1.2581060337       14.5809823228
  C         6.1187121986        0.6115670715       13.8615940346
  C         6.0448918678        0.9593203487       12.3734903368
  C         5.5113177561        2.2217260873       12.0219760336
  C         5.5252971570        2.7095851186       10.7127464131
  C         6.1397860251        1.9849873873        9.7168465098
  C         6.8493964865        0.8467087525       10.0998662901
  C         6.7091358242        0.2817907940       11.3816527231
  H         7.2728032180       -0.6323137236       11.5454738858
  H         7.5088416015        0.3964614106        9.3897415522
  H         6.2029048215        2.4892708984        8.7349056499
  H         5.0777012365        3.6559840423       10.4764923594
  H         5.1412057827        2.8376093142       12.7885809450
  C         8.1315375109        2.1266962662       13.8644470276
  C         9.1084281856        2.7619186813       14.5765684809
  H         9.7760585279        3.4047882547       13.9849713988
  H         8.0213996571        2.1143626290       12.7599877609
  C         4.0092535888       -1.1073294147       18.1343569426
  C         4.7500140438       -2.1562306599       18.6962851353
  C         4.6349500638       -2.6008256623       20.0120708418
  C         3.8296037682       -1.8620060129       20.8924622999
  C         3.0344675733       -0.7938682628       20.3889532594
  C         3.1377286600       -0.3967519998       19.0283165040
  H         2.4646225537        0.2620438849       18.5604601980
  H         2.3967380417       -0.2437821116       21.0525779611
  H         3.8562418072       -2.1314982912       21.9523379392
  H         5.3101322378       -3.3886960269       20.3547128967
  H         5.3567981704       -2.7209805978       18.0373247293
  C         1.7024859717       -1.7938978489       16.6154738574
  C         0.6635567394       -2.2365585589       15.8966667377
  C         0.5962342696       -2.2136366548       14.4650368491
  C         1.7260863062       -1.7899074898       13.8185354185
  H         1.7166880775       -1.8138500809       12.7339970789
  H        -0.3157803024       -2.5795472423       13.9129479251
  H        -0.2248386910       -2.6000946655       16.3888519235
  H         1.6978144092       -1.7093470119       17.6613111051
  C         4.0619572211       -1.2182428698       12.3307404302
  C         4.6549866131       -2.3133280368       11.7094994880
  C         4.5100937578       -2.6085947936       10.3796227032
  C         3.5824153974       -1.8861603496        9.6322170344
  C         2.8794720238       -0.7961684557       10.2040610913
  C         3.2147951880       -0.4845489083       11.5083219203
  H         2.7190922179        0.3787356628       11.8823002866
  H         2.0829586216       -0.2312829890        9.8102280549
  H         3.4756823727       -2.1163299143        8.5519498290
  H         5.0107573409       -3.4961368496        9.9478334045
  H         5.2609252017       -2.9698736815       12.3299014419
  C         1.2399787003        7.2412421858       15.6736836887
  C         0.1280709723        7.9398655293       16.3457155545
  C        -1.0045801442        8.3190128040       15.6377858986
  C        -2.0878377711        9.0453090975       16.2728686961
  C        -2.9509756324        9.8542316924       15.5978646234
  C         0.1573336968        8.3042872672       17.8308469239
  C         0.9595371447        9.3834814748       18.1806511507
  C         0.9630658169        9.8226267167       19.5344402454
  C         0.2392570251        9.0830521308       20.4747789506
  C        -0.5874319145        7.9877736455       20.1256844391
  C        -0.5567034400        7.5746203155       18.8081380444
  H        -2.1309046277        9.0416782861       17.3881662367
  H        -3.6867181851       10.4569222815       16.1150473936
  H         1.5610077082        9.8653037532       17.4707321291
  H         1.7052000491       10.5539649020       19.7941747919
  H         0.3572087716        9.3188803017       21.5405538501
  H        -1.2542406825        7.5183709767       20.8913428545
  H        -1.1746691429        6.6507698838       18.5220643835
  C         1.2512838933        7.0760864898       14.1950840947
  C         2.3811332652        6.4846327020       13.5537597823
  C         3.5811754676        6.1052772491       14.2829986376
  C         3.5011364083        6.1231067323       15.7092923206
  C         2.3614483928        6.7377939590       16.3661135086
  C        -0.9392939614        8.2851536505       14.1396811535
  C         0.1900623443        7.7400064860       13.4781456368
  C         0.4166775683        8.1863663036       12.0557276334
  C         1.3691956765        9.1666547325       11.7474009174
  C         1.2796573487        9.8307187371       10.5157517223
  C         0.4626890556        9.3120496488        9.4523557910
  C        -0.4000459392        8.2819561077        9.7419307643
  C        -0.4630743089        7.7826160234       11.0229266720
  H        -1.2594317149        7.0566538887       11.2167146928
  H        -1.0949141078        7.8728610682        9.0010663864
  H         0.4545854294        9.8393659226        8.5146981585
  H         1.9410975425       10.6858296566       10.2734342684
  H         2.1195215808        9.5267530616       12.4287701505
  C        -1.9411041339        9.0650953230       13.5086419866
  C        -2.7877657513        9.8544559317       14.1667265855
  H        -3.5634339342       10.3805888226       13.6188432820
  H        -1.9680155530        9.1985956419       12.4578613599
  C         2.0912039657        6.1779085652       17.7503314967
  C         1.2096748321        5.0801950832       17.8881764004
  C         0.9146678110        4.5171825641       19.1460172156
  C         1.5738077598        5.0874233992       20.2190339413
  C         2.4436731960        6.1894892859       20.0809112526
  C         2.7132301926        6.7112437954       18.8417341506
  H         3.3969999318        7.6434080038       18.7618815435
  H         2.8208368282        6.6784768337       20.9655946309
  H         1.3940406027        4.7150447818       21.2351428416
  H         0.2286962488        3.6794364217       19.2665771543
  H         0.7325066397        4.7564017025       17.0038609145
  C         4.4182266473        5.3478539284       16.4546803327
  C         5.4606601336        4.6868862811       15.8354284807
  C         5.7285252404        4.8382220964       14.4419172902
  C         4.8151967771        5.5462809802       13.6260191517
  H         5.0060709394        5.6680274253       12.5244732906
  H         6.5478628335        4.2912877645       14.0410265135
  H         6.0868448892        4.0743784031       16.4306588893
  H         4.3030932458        5.1253501026       17.5089716297
  C         2.3324861291        6.1168852524       12.0638673924
  C         1.4356257849        5.1662432302       11.5252371181
  C         1.4196751432        4.8674316752       10.1318285225
  C         2.2951224447        5.5243570710        9.2470393037
  C         3.2422657441        6.4491210673        9.7751398412
  C         3.2651848772        6.6985732308       11.1666343701
  H         3.9044811531        7.5289742045       11.6151556117
  H         3.9065890732        7.0112071822        9.1107115917
  H         2.2934495984        5.2818275355        8.1897741557
  H         0.6548965030        4.2095322784        9.6953276082
  H         0.7005225504        4.6720997551       12.1013852654
