140

  C        11.8260936134        1.3403618829        1.5345097498
  C        12.8343509153        2.0712480783        2.1817328671
  C        13.9482786467        2.5140680237        1.4238551944
  C        14.9110206303        3.2916179690        2.1304876970
  C        15.9946225834        3.7957310148        1.4539118262
  C        12.8356416791        2.5299984803        3.6307904533
  C        11.9779383330        3.5919265026        4.0026203000
  C        11.8742133272        4.0099326764        5.3295922848
  C        12.6492036245        3.4477241632        6.3161007657
  C        13.4368132232        2.3494341436        5.9882250749
  C        13.5383593893        1.8375972818        4.6697771283
  H        14.8935106430        3.4545828200        3.2189408914
  H        16.6896800775        4.4214813042        1.9367676147
  H        11.2302311525        3.9977380513        3.2751376526
  H        11.1845638845        4.8234987746        5.5190153530
  H        12.7442046390        3.8958324980        7.3253490495
  H        13.9524701818        1.7842905967        6.7588958401
  H        14.0241273413        0.8733231063        4.4988037171
  C        11.8160762504        1.3744831910        0.0282964851
  C        10.8194201596        0.6079727591       -0.6809553316
  C         9.7070177024        0.0819092695       -0.0089537122
  C         9.7208010310       -0.0473521307        1.4637991190
  C        10.7704059698        0.5896880936        2.2012518236
  C        14.0016101117        2.4353755671       -0.0264402059
  C        12.8722203417        1.9294417874       -0.7747936772
  C        12.8593612430        2.3396243512       -2.2207014007
  C        11.8996525088        3.2228275938       -2.6884554843
  C        11.9234620753        3.6496812377       -3.9952957389
  C        12.8389691392        3.1448095283       -4.9372882306
  C        13.7859116330        2.1914979920       -4.4742330667
  C        13.8185891386        1.8492389703       -3.1205294910
  H        14.5370677112        1.1583060847       -2.7134899646
  H        14.4322820667        1.7150136651       -5.1658007303
  H        12.7951641182        3.4562765496       -5.9452591672
  H        11.1516591562        4.3185228679       -4.3940345768
  H        11.0650060602        3.5384421433       -2.0671082598
  C        15.1508943504        2.9786193800       -0.6798300218
  C        16.1369810776        3.5683512089        0.0388746133
  H        17.0041592116        3.9958717368       -0.4426085228
  H        15.2394728377        2.9695558598       -1.7531342034
  C        10.7520880711        0.3328123679        3.7120782404
  C        11.3977470520       -0.7872762225        4.2595973491
  C        11.2558510457       -1.1170735323        5.6222590572
  C        10.4358825249       -0.2474396984        6.4244033884
  C         9.6971084874        0.8197078326        5.8493353087
  C         9.9676625530        1.1232741456        4.5104524578
  H         9.5413793081        2.0022236603        3.9763629888
  H         9.1208490978        1.3833695490        6.6071178201
  H        10.2033322015       -0.4259108795        7.4802480113
  H        11.7505748540       -1.9501582569        6.0470065737
  H        12.0813215594       -1.3484592225        3.6842777027
  C         8.5815752120       -0.5814830139        2.1518992374
  C         7.5442854220       -1.1694598539        1.5101277991
  C         7.5598996337       -1.1041452229        0.1067014767
  C         8.5163414320       -0.4630195679       -0.5967615288
  H         8.2080229520       -0.3746929835       -1.6451748323
  H         6.6557959105       -1.4551949777       -0.3665561395
  H         6.7582867981       -1.7324606005        1.9835357219
  H         8.6869384286       -0.7241995958        3.2589696603
  C        10.7283336729        0.3229571031       -2.1439738616
  C        11.5896646066       -0.7262845681       -2.6636989520
  C        11.5405005391       -1.0822249559       -3.9968583502
  C        10.4715666330       -0.6177199536       -4.8125668690
  C         9.7094814098        0.4690025414       -4.3641347906
  C         9.8119885836        0.9315417165       -3.0339736213
  H         9.1857225754        1.6437774866       -2.6625722133
  H         9.0200936752        0.9838600475       -4.9859613624
  H        10.3430944860       -0.9876302270       -5.8352571612
  H        12.2298093494       -1.8281138529       -4.4445391622
  H        12.3272681661       -1.0961395246       -1.9665206096
  C         8.3584754664        8.5269762898        1.3995355007
  C         7.3702162274        9.2255991786        2.1190520124
  C         6.1916640297        9.7303422418        1.4747911839
  C         5.0257945789       10.2058169178        2.2053350943
  C         3.9281265264       10.6206903176        1.4869371332
  C         7.4534455866        9.6134465262        3.6213423449
  C         8.3444253292       10.5221854012        4.1742634563
  C         8.2892586879       10.7635885557        5.5977777535
  C         7.3040752274       10.1419780232        6.2888211386
  C         6.3526318285        9.2774288777        5.7312956180
  C         6.5297827749        8.9070146328        4.3994101106
  H         4.9656673891       10.1848960354        3.3016633259
  H         3.0056669795       10.9696415767        2.0220960063
  H         9.1206969452       10.9757300804        3.5319967741
  H         9.0647159853       11.3145243555        6.0877730522
  H         7.2730885063       10.2857391201        7.3228030647
  H         5.6646973938        8.7504685938        6.3873728345
  H         5.9808414726        8.0831697725        3.9859538453
  C         8.3352084622        8.5400833941       -0.1010793081
  C         9.2316098830        7.7609174135       -0.8507112605
  C        10.2688480994        7.0839618922       -0.1263091075
  C        10.3539142103        7.0715785932        1.3134842107
  C         9.4107550760        7.7673069789        2.0446026607
  C         6.1378000855        9.7862170754        0.0475777669
  C         7.2363749053        9.2902148393       -0.6647055396
  C         7.2264796669        9.6125957651       -2.1150212153
  C         7.8577648373       10.8138065466       -2.4930118584
  C         7.7249815243       11.2733261517       -3.8212814770
  C         7.0181087649       10.5575371948       -4.7792755434
  C         6.4112866295        9.3850857522       -4.4086111591
  C         6.4441242257        8.8497949034       -3.1387987433
  H         5.9861851036        7.8641042635       -2.8481811533
  H         5.7824293861        8.8537118672       -5.1348256467
  H         6.8840915252       10.9757053252       -5.8088745426
  H         8.3148228360       12.1001838578       -4.1872555621
  H         8.3123762354       11.4735878108       -1.7622489475
  C         5.0069596124       10.3222455818       -0.6235395410
  C         3.9054591388       10.7194553253        0.0862494935
  H         3.0105820881       11.1106072090       -0.4038356965
  H         5.0195402837       10.4099334812       -1.7166920529
  C         9.2530102853        7.3782787749        3.5637656209
  C         8.3849702446        6.2885074354        3.8887181642
  C         8.2263970208        5.8691195396        5.1838809327
  C         8.9153203615        6.5155947045        6.1881089083
  C         9.8197317188        7.5676494495        5.8681493419
  C         9.9949332440        8.0313675293        4.5049408634
  H        10.7546908993        8.7437195291        4.3522304356
  H        10.3995682341        8.0546047453        6.6588114154
  H         8.7456484357        6.2365650893        7.2146014555
  H         7.4465541486        5.2313078723        5.6378539530
  H         7.9783271671        5.8306287058        3.0075618723
  C        11.4484118602        6.3381602233        1.8941654598
  C        12.5032146096        5.8245720999        1.1674934439
  C        12.3515862789        5.7440411679       -0.2694928068
  C        11.3024061967        6.4306967224       -0.9124798240
  H        11.2954836346        6.5252107785       -2.0336911395
  H        13.1825699867        5.3096990488       -0.7901998192
  H        13.4283383709        5.3637835278        1.5821799590
  H        11.5255021753        6.4043997830        2.9766684156
  C         9.1302183039        7.3512648639       -2.2978048519
  C         8.5645093415        6.0959677772       -2.6223367381
  C         8.5211051758        5.6282121063       -3.9341499127
  C         9.2517703679        6.3019657408       -4.9574781274
  C         9.7850183663        7.5629644713       -4.6185020921
  C         9.6827526685        8.0801642600       -3.3036104541
  H        10.1688935402        9.0530311311       -3.1505511760
  H        10.3169446790        8.1490510102       -5.3999441563
  H         9.2366393849        5.9020994356       -5.9906088587
  H         7.9769855246        4.6911488347       -4.2405614305
  H         8.0034376726        5.5882132633       -1.7751630638
