140

  C         1.9570336685        0.8258299797       14.8020453156
  C         3.1083879174        1.4600266646       15.5169101651
  C         4.1463812767        1.9855453430       14.7024027785
  C         5.1213769486        2.7804362946       15.3344336030
  C         6.1849367521        3.3498568905       14.7104171257
  C         2.9241753315        2.0951300862       16.9158700905
  C         1.9143357201        3.0458348175       17.2114155168
  C         1.8071717633        3.5716249783       18.4829426099
  C         2.7409793579        3.1221357398       19.4682304161
  C         3.7829789692        2.2285965804       19.2262449537
  C         3.8141687447        1.6677668332       17.9250978229
  H         5.2022425550        2.9824646155       16.3993792637
  H         6.8608661757        4.0978290935       15.2063597729
  H         1.2828973336        3.3678468780       16.3853965196
  H         1.0401488357        4.3231197012       18.6917606500
  H         2.6286340604        3.5378996864       20.4778393376
  H         4.4916245923        1.9318633379       20.0013964823
  H         4.5168823147        0.9095518191       17.7195907232
  C         1.9324211322        0.8762067752       13.3785880973
  C         0.9061011754        0.1878258453       12.7034323402
  C        -0.2099498300       -0.3830407031       13.4203694416
  C        -0.1761018799       -0.5023958534       14.8697505932
  C         0.9643894303        0.0263841009       15.5176119539
  C         4.1617097700        1.8870466968       13.2405368506
  C         2.9744506224        1.5136874887       12.6404815590
  C         2.7669873271        1.8441824196       11.2367400792
  C         1.9196296932        2.8362375493       10.6615203580
  C         2.1828340293        3.3189103997        9.4093038864
  C         3.1227003795        2.8113273067        8.5394434542
  C         3.9017588089        1.7575677919        9.0029961572
  C         3.7678716665        1.4047503817       10.3080007960
  H         4.5782689347        0.7117944243       10.6953743244
  H         4.6072615824        1.3385389391        8.3009693831
  H         3.0003384734        3.1414340298        7.5226630807
  H         1.6600482523        4.1896212929        9.0374275546
  H         1.1683338355        3.2744405328       11.3303510110
  C         5.3162368273        2.5270383123       12.5236550844
  C         6.2955875704        3.1484145187       13.2803756465
  H         7.1167272492        3.7400087649       12.8793872590
  H         5.4058700227        2.4937360068       11.4231269633
  C         1.0177797331       -0.2551426243       16.9590053194
  C         2.0336220046       -1.0878701526       17.4967844040
  C         2.0843286175       -1.3513815769       18.8317311586
  C         1.1675930863       -0.8806228797       19.7715066578
  C         0.1046536770       -0.1049130324       19.2834479976
  C         0.0891469593        0.2606928219       17.9154787630
  H        -0.6898973578        0.9532140457       17.5503077087
  H        -0.7248784980        0.2230186723       19.9581562536
  H         1.2835331346       -1.1034971801       20.7899529858
  H         2.8865637043       -1.9583423255       19.1196030965
  H         2.9193790821       -1.3685924389       16.9457682268
  C        -1.2042298333       -1.2239062785       15.5380557427
  C        -2.1869837659       -1.7628737006       14.7264249046
  C        -2.2633912824       -1.6642976714       13.3486900622
  C        -1.2437138557       -1.0202221664       12.6913050680
  H        -1.1392396558       -1.1614158597       11.6647492210
  H        -3.0222394488       -2.1924697016       12.7325717140
  H        -2.9833315519       -2.3367998877       15.1353728647
  H        -1.2361079692       -1.2518170133       16.5915830499
  C         1.0229619308       -0.2363833128       11.2877037195
  C         1.8228882709       -1.2589520949       10.8555243841
  C         1.8834504173       -1.6734121688        9.5077887226
  C         1.0878954834       -1.1439139159        8.5145905763
  C         0.2100033425       -0.1073521168        9.0025098405
  C         0.1558010595        0.3427660628       10.3059218732
  H        -0.3555705207        1.2789982798       10.6789407479
  H        -0.4088871559        0.4381070076        8.2784890114
  H         1.0990791491       -1.4890359592        7.4605609064
  H         2.5804793498       -2.4212521145        9.2666604113
  H         2.4520664505       -1.6955235135       11.6395602405
  C        -1.5637223112        8.0243302467       14.8126797035
  C        -2.6096834373        8.6687569930       15.5592901183
  C        -3.6336290453        9.3585943289       14.8201807171
  C        -4.7737705206        9.9469595746       15.4433404456
  C        -5.7780561989       10.6848211897       14.7484547379
  C        -2.5977110358        9.0679270793       17.0757965536
  C        -1.9057242500       10.2112776720       17.4174109663
  C        -1.9645941776       10.6171142538       18.7754249879
  C        -2.8174744578       10.0036962133       19.6356743877
  C        -3.5713170359        8.9188712910       19.2445145047
  C        -3.4026037621        8.3585327859       17.9855118269
  H        -4.8645902487        9.8885949150       16.5065697224
  H        -6.6166567385       11.1239322373       15.3011563431
  H        -1.2602167049       10.6394259647       16.6501474115
  H        -1.2710558915       11.3377432124       19.1880428092
  H        -3.0150407099       10.3490735145       20.6852812596
  H        -4.2505902630        8.3828059554       19.8642641168
  H        -3.9481183836        7.4649930247       17.6342932176
  C        -1.5535782420        8.0483725172       13.3592049222
  C        -0.4955399412        7.3315325369       12.6616931202
  C         0.6201855591        6.7691680393       13.3615302232
  C         0.5902761440        6.7554034167       14.7798763603
  C        -0.4740982571        7.3434295199       15.5009653315
  C        -3.6225673134        9.3371290096       13.3585222112
  C        -2.5632955101        8.6755027381       12.6217177766
  C        -2.5178398247        9.0132916657       11.1494200195
  C        -1.6763598334       10.1152080793       10.8814007618
  C        -1.6007131423       10.6500877015        9.6048157236
  C        -2.4859282892       10.1608071514        8.5764961897
  C        -3.3114183171        9.1041148266        8.8724157529
  C        -3.3337962979        8.4904654610       10.1415620937
  H        -4.0191688837        7.6985572428       10.3251508359
  H        -4.1539598091        8.9846145300        8.2044007676
  H        -2.5461942680       10.7092122105        7.6482275266
  H        -1.0536274964       11.5873569330        9.3201731040
  H        -1.1391303841       10.5809225131       11.7209908439
  C        -4.6415105555       10.0969558046       12.6788877212
  C        -5.6356139276       10.7422803911       13.3215965127
  H        -6.4203457790       11.1826835623       12.6237892547
  H        -4.7289186215       10.2068796821       11.6041343990
  C        -0.7177699798        6.8955475937       16.9026690700
  C        -1.4913962070        5.7265138597       17.1171980401
  C        -1.7780814680        5.2710401979       18.3882143844
  C        -1.0620564451        5.9043448925       19.4443066515
  C        -0.2166866125        6.9861295319       19.1883209471
  C         0.0088119870        7.4845814835       17.8975417975
  H         0.4736787685        8.4127633351       17.6832358088
  H         0.2243672845        7.4574988026       20.1064396974
  H        -1.0577061561        5.5617496231       20.4830535913
  H        -2.4396904081        4.4104230197       18.4701356650
  H        -2.0047668876        5.2882142880       16.3028400991
  C         1.7250901265        6.1978874801       15.4563033645
  C         2.7048236633        5.5972440371       14.6802126937
  C         2.6875048750        5.5661277328       13.2957094644
  C         1.6399071205        6.1398051967       12.6009610789
  H         1.5806145703        6.0521959195       11.5439807655
  H         3.5448458036        5.1453669653       12.8254175183
  H         3.5232705489        5.2852061281       15.2939544031
  H         1.8171879160        6.2959343327       16.5025367127
  C        -0.4679778359        6.9821705906       11.2043168777
  C        -1.4523029943        6.0503424338       10.8738502805
  C        -1.4137390895        5.5123633360        9.5894298911
  C        -0.5626001191        5.9710961810        8.6128313743
  C         0.2467540076        7.1108214567        8.9320749183
  C         0.3398692270        7.5999834279       10.2217850327
  H         1.0496284332        8.3332118331       10.4008289509
  H         0.9806056671        7.5764452568        8.2359526582
  H        -0.5760422229        5.5351462388        7.6044242364
  H        -2.1094910146        4.6790741768        9.3129583093
  H        -2.1589730968        5.6530443156       11.6497688077
