140

  C        15.0987707337       -0.4518947113        0.6575012016
  C        16.2128574756        0.0865179329        1.3909602226
  C        17.1809302290        0.8236463267        0.6186923789
  C        18.1732659401        1.6758567382        1.2930259468
  C        18.9597003179        2.5372054522        0.5997843029
  C        16.1637252671        0.4951980642        2.8804809646
  C        15.2394324376        1.3959995392        3.3629663889
  C        15.1770871875        1.7976692147        4.6640356390
  C        16.1359917913        1.3428526269        5.5995955718
  C        17.0175247411        0.3862029746        5.2201707798
  C        17.0548413356       -0.0302321333        3.8416635121
  H        18.3266724892        1.6193208902        2.3725892616
  H        19.6769175604        3.1624603799        1.0866438446
  H        14.5904285266        1.8240022354        2.5800911229
  H        14.4309347539        2.5229345292        4.9551417452
  H        16.0406593283        1.5251078120        6.6870446288
  H        17.8606020889        0.0327493983        5.8290334236
  H        17.7556078929       -0.8630712523        3.5726404479
  C        14.9824417251       -0.3171245769       -0.7543828796
  C        13.8943550815       -0.8737280939       -1.4853115286
  C        12.8682573907       -1.4848215303       -0.8688799916
  C        12.8574417115       -1.5729584687        0.5792028321
  C        14.0133862926       -1.1474766562        1.3028745258
  C        17.0601461424        0.9669897805       -0.8002824142
  C        15.9092858395        0.5276537422       -1.4843743181
  C        15.6617759180        0.9690503941       -2.9350664381
  C        14.9444218214        2.1502790554       -3.2528311076
  C        14.8939755582        2.6137064491       -4.6124462621
  C        15.6893206656        1.9060562510       -5.5478227027
  C        16.4253149699        0.7731427011       -5.1866882474
  C        16.3986620241        0.2667350576       -3.9080913837
  H        17.0690411705       -0.5365169648       -3.6019905230
  H        17.1055552481        0.2247613640       -5.8341330624
  H        15.6852421031        2.2491810005       -6.6041214634
  H        14.2404295385        3.4228311704       -4.9148074803
  H        14.6483415068        2.7772613406       -2.4061405934
  C        18.0068553442        1.7564504808       -1.4766752163
  C        18.9877020235        2.4075761997       -0.8468636047
  H        19.7843313197        2.9397443335       -1.3730314671
  H        17.9488193193        1.7767171081       -2.5110814182
  C        14.0323628812       -1.4543823326        2.7441982085
  C        14.8280036504       -2.5258759584        3.2243407451
  C        14.7496589674       -2.9610824939        4.5336844026
  C        13.8202910658       -2.3953517688        5.4118590716
  C        13.0147040581       -1.2990248072        4.9525420959
  C        13.1331607391       -0.8206511962        3.6709035917
  H        12.5837694969       -0.0157504843        3.2678676943
  H        12.2086972117       -0.8629598087        5.6267330061
  H        13.6638543408       -2.7832394873        6.4226116281
  H        15.3657349790       -3.7390909919        5.0048538296
  H        15.5327392032       -2.9197103294        2.4875486470
  C        11.6739025584       -2.1364191710        1.2342482819
  C        10.6857388804       -2.6533568610        0.4594992900
  C        10.7685545749       -2.6984649875       -0.9662513858
  C        11.8001188660       -2.1097677122       -1.6426326295
  H        11.9743590914       -2.2311138160       -2.6917110549
  H         9.9440220032       -3.2351962090       -1.4566503912
  H         9.7994330270       -3.1570482210        0.9342414543
  H        11.6868822783       -2.3819511729        2.3007514450
  C        14.0390592194       -1.2626009252       -2.9533320332
  C        14.8815537622       -2.3674295668       -3.2072853817
  C        15.1171270406       -2.9434357418       -4.5037676668
  C        14.4057604196       -2.3623899517       -5.5156606852
  C        13.3857530986       -1.4465311863       -5.2498268043
  C        13.2043276982       -0.8284270968       -3.9976022971
  H        12.4690326622       -0.0228509244       -3.8233615427
  H        12.7891766000       -1.1230102885       -6.1081898445
  H        14.3620140352       -2.8474229249       -6.4743110533
  H        15.7645383904       -3.8035673364       -4.6634205568
  H        15.3193572400       -2.8020615440       -2.3142283128
  C        11.4915407933        6.9770703318        0.8538942453
  C        10.4431975036        7.7406985917        1.4564235914
  C         9.3814891391        8.3024312592        0.7308627527
  C         8.2963078624        9.0433277700        1.3672870674
  C         7.2740332918        9.5811367513        0.5991614173
  C        10.4782775024        8.0087420624        2.9031210946
  C        11.2891538207        9.0832480871        3.3007501969
  C        11.5532107954        9.4716535272        4.5792502009
  C        10.7378251889        8.8166071168        5.5506349781
  C         9.7842671814        7.8287017999        5.2138313567
  C         9.6808051986        7.3915897133        3.8757600215
  H         8.4676079222        9.4126563969        2.4050648715
  H         6.5017106758       10.2208520724        0.9880112489
  H        11.8038356374        9.6746490454        2.4621389110
  H        12.4135305269       10.0986631233        4.7292694336
  H        10.8293792214        9.1886956310        6.5144802968
  H         9.2222130690        7.2470566318        5.9218573634
  H         9.0232480433        6.6286979115        3.4697632974
  C        11.4595417548        6.8634445061       -0.6318670261
  C        12.4680633639        5.9864414449       -1.2278029477
  C        13.5558882146        5.5093783333       -0.4387224154
  C        13.5388249363        5.4685858113        0.9645563391
  C        12.4236560771        6.1540148661        1.6382517548
  C         9.3119181686        8.0680071827       -0.6818536647
  C        10.3687398058        7.4168513608       -1.3971199677
  C        10.5282771711        7.7409845671       -2.9244616256
  C        11.1943124692        8.9289802721       -3.2560430524
  C        11.3622278463        9.4041514814       -4.5512123232
  C        10.7211526842        8.6793106754       -5.5902523380
  C        10.0013242546        7.5557404085       -5.2816212452
  C         9.8591905509        7.0240691329       -3.9581755037
  H         9.2298980020        6.1098511583       -3.8389732678
  H         9.4301044679        6.9687493234       -6.0172712638
  H        10.8064010381        9.0652225917       -6.6503590887
  H        11.9130167795       10.2650158341       -4.6815329106
  H        11.6971924563        9.5000213059       -2.4861806276
  C         8.1606494506        8.5077500353       -1.3474453750
  C         7.2598168722        9.3093860787       -0.7945820761
  H         6.4451596029        9.6700502038       -1.5008821481
  H         8.2251512175        8.2478840457       -2.4682945783
  C        12.1383065906        5.7755371114        3.0412757780
  C        11.0311517753        4.8951929571        3.3589050003
  C        10.8298640246        4.4485620456        4.6360952666
  C        11.7241954243        4.7248142606        5.6504612933
  C        12.7218893815        5.7173416287        5.4611396859
  C        12.9559837588        6.1688428558        4.1238374474
  H        13.6821442664        6.9582018106        3.9559005442
  H        13.4497832753        6.0077282797        6.1966895522
  H        11.5650626877        4.2205337340        6.5706563212
  H        10.0522397536        3.6958815264        4.7875335552
  H        10.3767290999        4.6094613506        2.5633214347
  C        14.5921280621        4.8795783200        1.7234587812
  C        15.6166612290        4.2436389809        1.0147439268
  C        15.7635600540        4.4054878557       -0.3634591582
  C        14.7276276904        4.9345795189       -1.0836171720
  H        14.8258971270        4.9188212509       -2.2049093163
  H        16.6235322381        3.9612997075       -0.9148817964
  H        16.3165237821        3.7367172749        1.6286823072
  H        14.6140982437        4.8483797751        2.8318089513
  C        12.4890570997        5.7051849742       -2.6988998531
  C        11.6922345937        4.6677834786       -3.2074679386
  C        11.4885191089        4.3765259566       -4.5882745537
  C        12.3109783655        5.0812378251       -5.4823404324
  C        13.1820568697        6.0425175498       -5.0461815486
  C        13.2211945866        6.3952004791       -3.6237898350
  H        13.8275696301        7.2396826089       -3.2004985907
  H        13.8031310524        6.5787284263       -5.7307850624
  H        12.2072167254        4.8580036720       -6.5309816029
  H        10.7103253313        3.7339885257       -4.8895763435
  H        11.0923450584        4.0155759814       -2.5104841587
