140

  C        14.1831009591        0.2406077862        1.1399574477
  C        15.2167284374        0.9528725144        1.8206611891
  C        16.3097827931        1.4356563997        1.1371060952
  C        17.4828704657        2.0299526511        1.8102615065
  C        18.4515035241        2.7269380519        1.0787438924
  C        15.1222517890        1.1934379306        3.2860197495
  C        14.2054403497        2.1769638401        3.7449163109
  C        14.2621700867        2.6470442294        5.0220451291
  C        15.1543684334        2.0949034577        6.0078700877
  C        15.9302299917        0.9999041987        5.5419703903
  C        15.7711305633        0.5540633290        4.2473295386
  H        17.5650969552        1.8668403508        2.8724882504
  H        19.3019570529        3.0775159941        1.6041901991
  H        13.4767294036        2.5662491892        2.9846147769
  H        13.4074773878        3.2568234640        5.2584560056
  H        15.3538647785        2.4538350655        7.0106068816
  H        16.5528754710        0.4884679192        6.2730456449
  H        16.2916899661       -0.4191730249        4.0100697027
  C        14.1951868591        0.2197076557       -0.3500374977
  C        13.1450992502       -0.3647222083       -1.1395066225
  C        12.0200558027       -0.9124219249       -0.4187730734
  C        12.0739494573       -1.0555444451        1.0299002677
  C        13.1348761677       -0.5148889625        1.8354017905
  C        16.2749781952        1.5506414607       -0.3299731170
  C        15.2871602411        0.8641106813       -1.0004430714
  C        15.1554979917        1.2251215747       -2.4356300038
  C        14.3675940676        2.2882771722       -2.9570651508
  C        14.4224010161        2.5763819609       -4.3163495587
  C        15.3042194238        1.9492049897       -5.1637787134
  C        16.0615276220        0.8487416749       -4.6996898409
  C        15.8837343653        0.4590090690       -3.3554026415
  H        16.3509611607       -0.4804774976       -3.0182957314
  H        16.7595207242        0.3188765410       -5.3229980285
  H        15.3427723643        2.3055250480       -6.1603373195
  H        13.7105025326        3.3185635228       -4.7139377710
  H        13.6396784075        2.8227990034       -2.3378055780
  C        17.1815629691        2.4883566529       -0.9693023214
  C        18.1996094458        3.0802098681       -0.3034049523
  H        18.8660536690        3.8251374955       -0.8193039713
  H        16.9857486976        2.6460782132       -2.0523165142
  C        13.0686417045       -0.8510986531        3.2973503209
  C        13.8276450813       -1.9819877689        3.7844842798
  C        13.6254161204       -2.5256939609        5.0417002222
  C        12.5162033721       -2.2015084071        5.7963607412
  C        11.8084418054       -1.0738808619        5.3369559718
  C        12.1766435964       -0.3242946503        4.1971240428
  H        11.6150450488        0.6092536069        3.8576455740
  H        10.9921750751       -0.7536286532        5.9472388968
  H        12.2135024242       -2.5787904309        6.7466568685
  H        14.3260033192       -3.2211531215        5.4491545114
  H        14.5842051644       -2.3734421810        3.1354407921
  C        11.1039937434       -1.8788732149        1.6928452752
  C        10.0132808660       -2.4138667957        1.0342896141
  C         9.8958771324       -2.1485312023       -0.3933179852
  C        10.8855471973       -1.5043597719       -1.0906245092
  H        10.6926130252       -1.4541733088       -2.1349678423
  H         9.0319327883       -2.5108198911       -0.8553475570
  H         9.1807588044       -2.7826955739        1.5712853617
  H        11.1801710835       -2.0310079872        2.7931395572
  C        13.3287909881       -0.8247000769       -2.5515514321
  C        13.9028213962       -2.1568821050       -2.7011451725
  C        14.0095491738       -2.7096472506       -3.9802061042
  C        13.5352840112       -1.9935251747       -5.1074068963
  C        12.8919685872       -0.7474398822       -4.9458646431
  C        12.7648889386       -0.2185292939       -3.6602495465
  H        12.0574748533        0.5897060484       -3.4289191754
  H        12.3946879381       -0.2313816530       -5.7610682029
  H        13.6111845827       -2.4374400218       -6.0692030034
  H        14.5044253306       -3.6420701819       -4.1501877856
  H        14.2709207962       -2.6560609793       -1.8310492434
  C        10.4496083533        7.5154712218        0.8455939749
  C         9.3649078666        8.1554000466        1.5169012031
  C         8.3266819843        8.7500061796        0.7840682944
  C         7.1344492755        9.2695089455        1.4290904339
  C         6.0734899009        9.7406658601        0.7326449527
  C         9.3465442465        8.3550079883        3.0448121504
  C        10.0023201536        9.5661960889        3.4769566652
  C         9.9413997693        9.8744371725        4.8618644958
  C         9.3384673951        8.9889163572        5.7595746192
  C         8.6749956014        7.8681726597        5.3236759926
  C         8.6626452586        7.5685644877        3.9700572455
  H         7.2629064710        8.9902281934        2.4733608700
  H         5.1186209280        9.9092941151        1.1909909082
  H        10.5109177191       10.2773566969        2.7427065356
  H        10.3197651462       10.7655373929        5.3260958026
  H         9.3244060798        9.1428124497        6.7800559539
  H         8.1335183575        7.2903871153        6.1025130959
  H         8.0589728474        6.7707724671        3.5928264799
  C        10.4830441902        7.5072105353       -0.6344622739
  C        11.6501738690        6.8271058847       -1.2191257453
  C        12.5968931666        6.1689454685       -0.3935774859
  C        12.4430715833        6.0961442440        1.0334469517
  C        11.3632044854        6.7229893176        1.5793257400
  C         8.4061482930        8.7797889499       -0.6358684766
  C         9.5015365669        8.2354541315       -1.3654991573
  C         9.6238539214        8.3835679116       -2.8672760659
  C        10.4977547065        9.3371628622       -3.4093809996
  C        10.5907071247        9.7229273037       -4.7327896928
  C         9.6491743200        9.1945381931       -5.5842307981
  C         8.7399103536        8.1890884810       -5.1395308309
  C         8.8012141964        7.7480719358       -3.7828849702
  H         8.1082639923        7.0080440168       -3.4148252823
  H         8.0173969598        7.6770671935       -5.7944806146
  H         9.7450101300        9.4371418304       -6.6660962055
  H        11.3245664639       10.4622841995       -4.9378450896
  H        11.1719304142        9.8165649118       -2.6762149609
  C         7.3626677844        9.3420521605       -1.3601336599
  C         6.2342614157        9.8806823912       -0.7405963334
  H         5.5475134572       10.4838716050       -1.3432759466
  H         7.3846963198        9.3604426558       -2.4374499060
  C        11.2655507659        6.4463193896        3.0428464930
  C        10.7730238623        5.1980907574        3.5121070152
  C        10.9532659204        4.7437610313        4.8563855293
  C        11.5656238128        5.5721340146        5.7453476175
  C        12.0142588697        6.8063484519        5.3239889066
  C        11.9739876577        7.1778766869        4.0135419287
  H        12.4445965280        8.1016159605        3.7276436680
  H        12.5263206632        7.5058054149        5.9841689944
  H        11.8243995224        5.2811687900        6.7736451160
  H        10.7318519573        3.7213730516        5.1271153592
  H        10.3599959158        4.4488934229        2.8057977293
  C        13.4450853713        5.5250243739        1.7822268928
  C        14.6114405550        5.0279499507        1.2209230487
  C        14.7108534774        4.9283878943       -0.1861494595
  C        13.7287060195        5.5027490423       -0.9754024372
  H        13.8878610604        5.6412677025       -2.0257089751
  H        15.5934960260        4.5584425436       -0.6983556421
  H        15.3637723379        4.7212557021        1.9201140585
  H        13.4300456810        5.6011191829        2.8599100675
  C        11.6838399717        6.4048265604       -2.6645083833
  C        10.9575745876        5.3108033496       -3.2282467144
  C        11.1340281817        4.8460409507       -4.5886385535
  C        12.1467470651        5.5146852184       -5.2901636990
  C        12.8953743734        6.6327617070       -4.8332501865
  C        12.6287958477        7.0543149930       -3.5390304994
  H        13.1304626208        7.9167260439       -3.2150634984
  H        13.6464373038        7.1533310775       -5.3753432126
  H        12.3962499096        5.1352512554       -6.2966569009
  H        10.6249314868        4.0079219525       -5.0455354922
  H        10.1113730330        4.8882097482       -2.7359568008
