140

  C        15.1402700478       -0.5828126711        0.8430268996
  C        16.1012550618        0.2671021513        1.4307804044
  C        17.1659971655        0.8019963370        0.5937746518
  C        18.3807236486        1.2376245537        1.2036308825
  C        19.5259116739        1.6434828457        0.5026121557
  C        16.1626342301        0.5457601434        2.8222933441
  C        15.6537569004        1.7820290173        3.2090749272
  C        15.8056753961        2.2684023755        4.5324781727
  C        16.3016008239        1.4671978435        5.5095509934
  C        16.9218735391        0.2155223868        5.1453670610
  C        16.9737747378       -0.1626366443        3.7947270768
  H        18.3800076595        1.2772500506        2.2760589419
  H        20.4469867541        2.0155287311        0.9315028984
  H        15.0686531285        2.3497426423        2.5373679964
  H        15.4306373214        3.2053002016        4.7914564151
  H        16.3994248234        1.7046378950        6.5637142321
  H        17.5014728503       -0.4403968848        5.8531434457
  H        17.5928547355       -1.0340206314        3.5169456328
  C        14.9711295424       -0.5041311160       -0.6591417271
  C        13.9251888682       -1.2196282976       -1.2702365047
  C        12.9021271833       -1.7844781324       -0.5207372837
  C        13.0250789332       -1.7880678718        0.9396707014
  C        14.1952811136       -1.3481753342        1.6014924728
  C        17.0660730675        0.7619036573       -0.8495222827
  C        15.9295505809        0.1122520443       -1.4615011316
  C        15.7690919963        0.4724135622       -2.9197963572
  C        14.9582376367        1.5119322554       -3.3121303466
  C        14.9264886054        2.1205596024       -4.5713270625
  C        15.6167309053        1.5336540230       -5.6165740612
  C        16.4073079549        0.4020796372       -5.3252557078
  C        16.5139258699       -0.0958156791       -3.9856198265
  H        17.1744590017       -0.9362720450       -3.8876051401
  H        16.8372963604       -0.0099284693       -6.2152234174
  H        15.5830636981        1.9478764328       -6.5831544754
  H        14.3517778143        3.0281893814       -4.6543744852
  H        14.3924622604        2.0130461972       -2.5440515997
  C        18.1993539668        1.3024479790       -1.5600780015
  C        19.3589059602        1.6670970034       -0.9156831081
  H        20.1551039517        1.9752241878       -1.6412403668
  H        18.2643360163        1.2970120188       -2.6052974308
  C        14.2804538391       -1.6407055428        3.0531900517
  C        14.9770362052       -2.7443124323        3.5420452315
  C        14.8734737304       -3.1089538778        4.8663810166
  C        14.0436555343       -2.4095478868        5.7458261935
  C        13.4462603766       -1.2080373451        5.3178909066
  C        13.5471153711       -0.8703780436        3.9729350495
  H        12.8748728382       -0.1675050277        3.5184174504
  H        12.7601223125       -0.6956376145        5.9492138261
  H        13.7868178744       -2.7827604954        6.6485375278
  H        15.3110566774       -4.0235071074        5.2637938279
  H        15.6086775757       -3.2798432530        2.8427389818
  C        12.0189231527       -2.4580328674        1.6600909019
  C        10.9513970100       -3.0384075253        1.0608232352
  C        10.8351499941       -3.0662507420       -0.3680403744
  C        11.8333770135       -2.5052562276       -1.1535846920
  H        11.7142902290       -2.6314826298       -2.1973166503
  H         9.9193317155       -3.5917397608       -0.8662214505
  H        10.2856748693       -3.6904222842        1.6804580342
  H        12.1542351836       -2.5404762299        2.7197320260
  C        13.9892328133       -1.5380840636       -2.7565304602
  C        14.7269383280       -2.6299326807       -3.2015883061
  C        14.7388070683       -2.9216500948       -4.5501650691
  C        13.9115232713       -2.2865699382       -5.4212064035
  C        13.0530221805       -1.2415595414       -4.9881733786
  C        13.1358960247       -0.8308313697       -3.6975889320
  H        12.4051611408       -0.1261778414       -3.2811704679
  H        12.4818199702       -0.7297009020       -5.7308432573
  H        13.8565594328       -2.5890074930       -6.4560361184
  H        15.2816961262       -3.7492238442       -4.8192243461
  H        15.4361227069       -3.2049672922       -2.5799025113
  C        11.7299071538        6.5112029030        0.6843275034
  C        10.7939392144        7.2340769030        1.4475936754
  C         9.6622304932        7.8104013145        0.8435252728
  C         8.6524170638        8.5484931172        1.6064394732
  C         7.4719212530        8.8697361327        1.0992589986
  C        11.0621116768        7.6161138323        2.9433606511
  C        12.0270339887        8.5450072819        3.2942860776
  C        12.0020854164        9.0468962725        4.6151156059
  C        11.0947175254        8.5828311335        5.5816032906
  C        10.1243731215        7.6339292019        5.2041557920
  C        10.1727850684        7.1605644342        3.9149724732
  H         8.8368353502        8.6734967607        2.7093544120
  H         6.7436247600        9.4563100906        1.6428658484
  H        12.7438495138        8.8804359253        2.6079954518
  H        12.6219671300        9.8779212857        4.8136307420
  H        11.0306556454        9.0065519313        6.5380954197
  H         9.3277308028        7.2896983625        5.8948156921
  H         9.4987430177        6.2626646449        3.6942874207
  C        11.6034827787        6.4160897184       -0.8763249565
  C        12.6662774724        5.8021695550       -1.6368764274
  C        13.7728422671        5.2315605741       -0.9981154585
  C        13.8245548223        5.2462693993        0.5172701685
  C        12.7302719501        5.7033367174        1.2868721008
  C         9.4749350490        7.6749401752       -0.6289237312
  C        10.5012317772        7.1517732473       -1.4516212815
  C        10.5595607371        7.5778399596       -2.8994086781
  C        11.3385065644        8.6730926016       -3.1915368766
  C        11.4590906337        9.1992679608       -4.5231896245
  C        10.6322393059        8.7178201905       -5.5524530951
  C         9.7131013883        7.6763179399       -5.1767437484
  C         9.6140898641        7.1394173368       -3.8801363159
  H         8.9736958210        6.2631301847       -3.6255251942
  H         9.0136203941        7.2510381495       -5.9336981805
  H        10.7711846611        8.9688423425       -6.6465928211
  H        12.2158173915        9.9666537624       -4.8129199204
  H        11.9250106989        9.2118605156       -2.5166862985
  C         8.2537635523        8.1973721639       -1.1480142667
  C         7.3115120661        8.7698285717       -0.3146643974
  H         6.4073164091        9.1091008883       -0.7970772041
  H         8.1014163704        8.2009716353       -2.2257453044
  C        12.6848014255        5.2633657995        2.7990485788
  C        11.8149611566        4.2499460208        3.1571006019
  C        11.7540632153        3.7931259732        4.5228458508
  C        12.6763220566        4.2852621671        5.4696299675
  C        13.4988963899        5.3783886270        5.1179298611
  C        13.5532773636        5.7626268263        3.7720774911
  H        14.2309067208        6.5523867149        3.4270802096
  H        14.1899663067        5.8508657465        5.8296142139
  H        12.7548243064        3.9297431715        6.5280060656
  H        11.0536069187        2.9823625645        4.7582252879
  H        11.3207753193        3.6972651886        2.3026400195
  C        14.8414240866        4.4560319497        1.1647315058
  C        15.8738402906        3.8670956185        0.4349751095
  C        15.9085514912        3.9221301507       -0.9562394565
  C        14.8714534258        4.5322896270       -1.6617492858
  H        14.8310056041        4.5987481960       -2.7365954473
  H        16.7004648123        3.3360708732       -1.4665078484
  H        16.6957975062        3.3168720797        0.9941105018
  H        14.9831892839        4.5407734981        2.2946256839
  C        12.5230069524        5.5385016226       -3.1074952316
  C        11.7543711798        4.4606928878       -3.5179318320
  C        11.7792774910        3.9930046884       -4.9110085269
  C        12.5971388356        4.7447593305       -5.8055352913
  C        13.2980007760        5.8884897376       -5.3434658281
  C        13.3879732535        6.2349838133       -3.9996335968
  H        14.0318095411        6.9529714489       -3.5924274804
  H        13.8786515869        6.2743374740       -6.1800732638
  H        12.4366863649        4.4859360691       -6.8113271906
  H        11.2427232137        3.0814669737       -5.1994174400
  H        11.1472094573        3.8752794005       -2.7904202810
