140

  C         4.0960871518        0.1391137964       15.1902470113
  C         5.1628697160        0.7924341063       15.8665003988
  C         6.3101852774        1.3322182710       15.2419146055
  C         7.2922843693        2.0673495794       15.9563007206
  C         8.4179633802        2.5595993110       15.3099538019
  C         5.1766926162        1.0432901119       17.3551891903
  C         4.4038506630        2.1168864994       17.7418273064
  C         4.3781689936        2.5902089380       19.0490644387
  C         5.1828531426        2.0801065299       20.0435759922
  C         6.0137502378        1.0152551366       19.6382951738
  C         6.0124227412        0.4957532942       18.3583699753
  H         7.0920312328        2.1351087221       16.9912332270
  H         9.1076731125        3.1384852373       15.9096004818
  H         3.6896901950        2.4782654441       16.9692169937
  H         3.6503536998        3.4019426699       19.2716361943
  H         5.1510706761        2.4400761364       21.0636663671
  H         6.6783498519        0.7193309397       20.4681002625
  H         6.7094993144       -0.2991573008       18.1032775167
  C         4.1225671204        0.2257166377       13.6929183145
  C         3.0277357387       -0.3731165911       13.0230208146
  C         1.9281153492       -0.9769582562       13.6898435452
  C         1.9351289027       -1.0459390936       15.1096231161
  C         3.0185704644       -0.5662583525       15.8503310717
  C         6.3651185917        1.4072423342       13.7995964677
  C         5.2130900795        0.8976770719       13.0391587309
  C         5.1833896877        1.2473239152       11.5885237485
  C         4.2221449947        2.1947422509       11.1325109425
  C         4.2198405153        2.6697828083        9.8082585362
  C         5.1753229070        2.1799758049        8.8782987405
  C         6.1346842071        1.2217529928        9.3207800030
  C         6.1638801600        0.7983368921       10.6437230945
  H         6.7572104362       -0.0399306730       10.9206966862
  H         6.7783320914        0.7186371225        8.6020480677
  H         5.1862145105        2.5907402705        7.8539983600
  H         3.4188242735        3.3322529512        9.5344740982
  H         3.4482032881        2.5278660745       11.8459540008
  C         7.4564897864        2.0487698691       13.1800994017
  C         8.4499998854        2.5903098618       13.9191399744
  H         9.2750719841        3.0356660998       13.3963206210
  H         7.4157179653        2.2283207044       12.1003307591
  C         3.1471351581       -0.9656872243       17.2672682266
  C         4.0573252157       -1.9258151969       17.7187019128
  C         4.0980898266       -2.2875960151       19.0555037351
  C         3.1729010290       -1.7589561692       19.9818838360
  C         2.2037585515       -0.8086356884       19.5178157434
  C         2.2078023957       -0.5116514154       18.1824288270
  H         1.4951168909        0.2766790882       17.8282791269
  H         1.5324894447       -0.4176681637       20.2225425400
  H         3.3108425386       -2.0212563627       21.0567047617
  H         4.8116557972       -3.0465208157       19.3652753276
  H         4.7783042642       -2.3968003062       17.0477719616
  C         0.9054336261       -1.8553184594       15.7404611110
  C        -0.2048051276       -2.2220645213       15.0428406748
  C        -0.1751319373       -2.1574459360       13.6367839848
  C         0.9098791460       -1.5658627407       12.9379280051
  H         0.8843331745       -1.4449682367       11.8421974914
  H        -1.0675669119       -2.5852533243       13.2082591226
  H        -1.0253804859       -2.6259844436       15.5342031722
  H         0.9828983471       -1.9265075699       16.8743264733
  C         3.1635204469       -0.7750114165       11.5935227630
  C         4.0750907385       -1.8308099319       11.3184284438
  C         4.1877345852       -2.2922197835        9.9592475072
  C         3.3451490120       -1.7679963875        8.9432095164
  C         2.4573620995       -0.7600580517        9.2297169538
  C         2.3914590534       -0.2419741037       10.5616004984
  H         1.5812271877        0.4508541987       10.7799631761
  H         1.7268925654       -0.3364505509        8.5069382950
  H         3.4432991796       -2.1801185757        7.9576566142
  H         4.8973669948       -3.1130519104        9.6974809228
  H         4.6784997455       -2.2899967422       12.1274129441
  C         0.5698244294        7.2089794694       15.3042311152
  C        -0.5803713424        7.8346132494       15.9419476080
  C        -1.6081968630        8.4461919202       15.2426422540
  C        -2.7840335960        9.0276163926       15.9050560317
  C        -3.6390193781        9.8118619687       15.1452948823
  C        -0.5178199977        8.2836897477       17.3463118714
  C         0.0504769776        9.4535869832       17.7933377076
  C         0.0209212110        9.8366519937       19.1882944698
  C        -0.6730203439        9.0134577127       20.0730919152
  C        -1.3385611941        7.8346226334       19.6597738280
  C        -1.2468248388        7.4973596081       18.3074308608
  H        -2.8495467079        9.0236086654       16.9815337778
  H        -4.4201717909       10.3386809741       15.6900276904
  H         0.4053066094       10.1799131886       17.0869816759
  H         0.4403213023       10.7605834975       19.5659036004
  H        -0.9350065493        9.4064339261       21.0551063146
  H        -1.9803229035        7.2409004003       20.2915355454
  H        -1.8346676683        6.7086703668       17.8747338726
  C         0.5886067127        7.2522152831       13.8410398822
  C         1.6412188560        6.6082720257       13.1529848053
  C         2.7900280655        6.1295638636       13.8286787935
  C         2.7895995309        6.0716994474       15.2855823510
  C         1.6508178266        6.5857491143       15.9741716118
  C        -1.5291873481        8.5379643258       13.8332491751
  C        -0.3550218700        8.0338296814       13.1807578014
  C        -0.0579295538        8.5121453786       11.7556223698
  C         0.9064419688        9.5622849810       11.6133270213
  C         1.1892324103       10.1139984808       10.2954337433
  C         0.4091691510        9.6597477762        9.2211630444
  C        -0.4914378498        8.5717722959        9.3578733561
  C        -0.7094720707        8.0595799167       10.6408927946
  H        -1.3523864922        7.1878558298       10.7980031500
  H        -1.1360122175        8.1818278228        8.5660724143
  H         0.4815946354       10.1530166899        8.2445869901
  H         1.9477298454       10.8379207122       10.1488997280
  H         1.2416677260        9.9895234957       12.5472286772
  C        -2.6290708580        9.1683231225       13.1279205578
  C        -3.6322130050        9.7928484805       13.7526157559
  H        -4.3207876673       10.3436700161       13.1406548232
  H        -2.5834750554        8.9886502575       12.0710971648
  C         1.5526598211        6.3140857702       17.4527676618
  C         0.7870246974        5.2273769778       17.8498680856
  C         0.6721484258        4.8904715770       19.2273200843
  C         1.4456883181        5.5388543842       20.1675854475
  C         2.2938833758        6.5527274199       19.7430228398
  C         2.3713203092        6.9556183942       18.3770009500
  H         2.9525086716        7.8331575088       18.0606755355
  H         2.8758071328        7.0681737552       20.4993824328
  H         1.4074586082        5.3571174236       21.2299658868
  H         0.0633630998        4.0694413080       19.5551778404
  H         0.2200096125        4.7042277727       17.1075502184
  C         3.8619588763        5.2726530540       15.9047802980
  C         4.9118059709        4.7170867760       15.1539809886
  C         4.8768554258        4.8199060662       13.7260792859
  C         3.8568560305        5.4535293901       13.0539148725
  H         3.8448834216        5.4056538478       11.9782690016
  H         5.6921403729        4.3278839542       13.1262389450
  H         5.6914324064        4.2408403850       15.6812225389
  H         3.8175209708        5.0830762784       16.9484460444
  C         1.3914785749        6.1979933613       11.7379750892
  C         0.2791243966        5.2509470521       11.5013757943
  C         0.1559850879        4.6352232735       10.3032999938
  C         1.0982750977        4.8887105232        9.3153778913
  C         2.1750266395        5.7627045514        9.4885212916
  C         2.2951873215        6.4679124104       10.6986074566
  H         3.0472126488        7.2347109437       10.7768676761
  H         2.8768680495        5.9320130134        8.7189498470
  H         0.9324398072        4.4158770012        8.3531606471
  H        -0.5948172270        3.8770306659       10.1138090606
  H        -0.4476480407        5.1213561719       12.2918499139
