140

  C         4.0933671810        0.0611930511       15.4723646159
  C         5.1144741067        0.7692232314       16.1446218270
  C         6.2187489976        1.2980045367       15.4946376082
  C         7.3136431966        1.9294725951       16.1990984387
  C         8.3171225912        2.5787052935       15.5597702978
  C         5.0919994738        0.9187653926       17.6347048895
  C         4.4155220351        2.1265771021       18.1120722593
  C         4.3594342585        2.4739496286       19.4336519542
  C         5.0773776433        1.7505466675       20.3965918712
  C         5.7366208205        0.6257609889       20.0275443561
  C         5.8035340708        0.2728970600       18.5993770794
  H         7.3232869797        1.8549859419       17.2514778291
  H         9.0823294412        3.0875330075       16.1224701134
  H         3.8054024093        2.7661366077       17.4301469978
  H         3.8247384863        3.3375032242       19.8712087261
  H         5.0880329523        1.9653143531       21.4366043549
  H         6.3727264481        0.1221678882       20.7875730016
  H         6.3497137476       -0.6075970818       18.2872945539
  C         4.1507751729        0.0726023711       13.9762122934
  C         3.2150472543       -0.7324486560       13.3253782686
  C         2.1058310771       -1.3076738609       14.0065347997
  C         2.0565748250       -1.3263658324       15.4137545804
  C         3.1213258344       -0.7532588809       16.1378751570
  C         6.2653989744        1.3862414904       14.0647938066
  C         5.1969619435        0.8990895745       13.3457073295
  C         5.2359198674        1.2548938588       11.9125942506
  C         4.4496325734        2.3055618013       11.4310600799
  C         4.4669740765        2.6625946131       10.0524588686
  C         5.3381735647        1.9735222369        9.1948595757
  C         6.2014172114        1.0026440270        9.7329010104
  C         6.1054900549        0.5620985423       11.0514805194
  H         6.8452968480       -0.0988602517       11.4482043991
  H         6.8316811857        0.4851707779        9.0551436340
  H         5.5267560956        2.2995208697        8.1540769867
  H         3.8282327991        3.4858934091        9.7518081565
  H         3.8897872195        2.9283671996       12.1460446528
  C         7.3703221950        1.9525678742       13.4363362924
  C         8.3177478953        2.5228689598       14.1660412548
  H         9.1234328459        3.0138154113       13.6363702795
  H         7.3641816641        1.9010152724       12.3459688677
  C         3.2137440264       -1.1644989482       17.6043167093
  C         3.7709184621       -2.3660557089       17.9436784727
  C         3.6654666572       -3.0154984518       19.1851346658
  C         2.7633811734       -2.4388735013       20.1031491650
  C         2.2753513407       -1.1351359678       19.9008197605
  C         2.5030738345       -0.4823863953       18.6522443879
  H         2.0615909201        0.5462193427       18.5257083121
  H         1.6684014229       -0.6545878778       20.6416532959
  H         2.5305734835       -2.9180285503       21.0668329028
  H         4.1021501492       -3.9390215220       19.4516206272
  H         4.4630797708       -2.8836899189       17.2524788197
  C         0.9592818756       -1.9279148574       16.0962990271
  C        -0.0152673380       -2.6625432778       15.3683046662
  C         0.1322242094       -2.7240019400       13.9682058253
  C         1.1041616710       -2.0428745821       13.3235432385
  H         1.2797984529       -2.2942809131       12.2465387311
  H        -0.5386210971       -3.3616215638       13.4128366146
  H        -0.8163695144       -3.2121298393       15.8370400751
  H         0.9904393014       -1.9048662978       17.2336404127
  C         3.1711168306       -0.9042526452       11.8667197917
  C         3.8288692968       -2.0158926485       11.2397896510
  C         3.7079277323       -2.3103829098        9.9162658592
  C         2.9494979672       -1.4502448613        9.0265693058
  C         2.3043208786       -0.3379384813        9.5915840807
  C         2.4155370142       -0.0710692236       10.9911996742
  H         2.0368816873        0.8586855133       11.3736927975
  H         1.6567605689        0.3694146179        8.9623091800
  H         2.9430115281       -1.7094183733        8.0120415911
  H         4.3267936192       -3.0724186736        9.3937698152
  H         4.6142557729       -2.5836585352       11.8243337786
  C         0.3484559284        7.1194567004       15.3313359278
  C        -0.7359994475        7.9009873732       15.9171858397
  C        -1.6788952219        8.5647112831       15.1364478761
  C        -2.8832730214        9.1479772952       15.6923843767
  C        -3.7824846606        9.7711304182       14.8721458652
  C        -0.7616797593        8.0950951948       17.4444931115
  C        -0.0763190676        9.1782449320       17.9724310372
  C        -0.2340324832        9.6141280520       19.3055617707
  C        -1.0513481873        8.8484605757       20.0895970956
  C        -1.6990721885        7.6543841906       19.5937772922
  C        -1.5550956527        7.3400147264       18.2919918014
  H        -3.0418419007        9.1140530503       16.7599020049
  H        -4.6630208666       10.1883605329       15.3687902319
  H         0.6258074321        9.6595223318       17.2984099414
  H         0.4368180713       10.3969132106       19.6960703317
  H        -1.2862548567        9.1652780420       21.1008168193
  H        -2.1890730650        6.9546247678       20.2476039414
  H        -2.0079834659        6.4915700670       17.8175327467
  C         0.5332812133        7.1425415938       13.8112771987
  C         1.6902883577        6.4969633389       13.1708863496
  C         2.7762805944        6.0490708379       13.9914846340
  C         2.6058250621        6.0554780167       15.4503347147
  C         1.4371579405        6.5841530644       16.1059446700
  C        -1.4874005391        8.6050895226       13.6942452057
  C        -0.3795808370        7.8863765215       13.0634419605
  C        -0.1116281225        8.2010463861       11.6503628188
  C         1.0047884231        8.9010049944       11.3972321050
  C         1.2828746390        9.4751403136       10.1662980676
  C         0.3682364910        9.3054735908        9.0786168385
  C        -0.7739135350        8.5140961940        9.3228833454
  C        -1.0462895811        8.0074569975       10.6031970888
  H        -1.9238061585        7.4462255411       10.8923127219
  H        -1.5478564421        8.3225465408        8.4963534265
  H         0.6191350402        9.6914214291        8.0968233426
  H         2.0185567812       10.2261912347        9.9858281700
  H         1.6919055472        9.0440967152       12.2267228176
  C        -2.4383394790        9.2988140516       12.8905103747
  C        -3.5941600876        9.7856491449       13.4639509172
  H        -4.3151023457       10.2807613668       12.8470863816
  H        -2.3476189542        9.3162261282       11.8212304375
  C         1.3932916175        6.2908456245       17.5795924010
  C         0.7368444265        5.1245364010       18.0068330071
  C         0.9163033042        4.5857057355       19.2676996642
  C         1.8103289283        5.2232954227       20.1420061504
  C         2.5252016701        6.3552153128       19.6992209439
  C         2.3216066110        6.9036205592       18.4432959728
  H         2.7988677157        7.8056676197       18.0934218240
  H         3.2854448240        6.6372238959       20.4239523326
  H         1.9041740930        4.8888909526       21.1542524411
  H         0.4060615875        3.6906065978       19.5775052657
  H         0.0823493204        4.6661461924       17.2948177657
  C         3.5772698664        5.3057993386       16.2017329200
  C         4.6534396221        4.7104223780       15.5732228343
  C         4.8450066825        4.6609915534       14.1832842954
  C         3.8756662413        5.3297535452       13.4472436846
  H         3.9588181609        5.3288858508       12.3848022904
  H         5.6527787290        4.0664734491       13.6651357653
  H         5.3373751371        4.1623217779       16.1775464344
  H         3.5991861707        5.1566242251       17.2625973077
  C         1.5252966278        6.0766087172       11.7405130544
  C         0.3435262192        5.3739609733       11.4991932864
  C         0.0016897292        4.9266494103       10.2412603345
  C         0.9089600181        5.1230530252        9.1783437101
  C         2.0769092981        5.8293179657        9.4352041863
  C         2.4092914611        6.2905599161       10.6565057315
  H         3.2792562744        6.9114817794       10.6399309878
  H         2.8311565595        6.0033387744        8.6624009062
  H         0.6174359190        4.7948600355        8.1739431539
  H        -0.9593418271        4.4316155923       10.1152817492
  H        -0.3343927520        5.1871243039       12.3318132387
