140

  C         4.0930451358       -0.4954839828       14.2995009172
  C         5.0308977145        0.2827117971       14.9976304491
  C         6.0929719089        0.8638499402       14.3368376358
  C         7.2198944571        1.5288817947       14.9367564108
  C         8.3179110806        1.9466130647       14.2075083568
  C         4.9817379042        0.5601423639       16.4813348914
  C         4.2198324077        1.6420489394       16.8420284936
  C         4.3888049894        2.1366969900       18.1380086739
  C         5.1943874466        1.4840420034       19.0914253879
  C         5.8485615081        0.3470014033       18.6991457044
  C         5.8346384784       -0.0510470192       17.3691991123
  H         7.2176417217        1.8490661888       15.9790918082
  H         9.1059879856        2.5014244082       14.6763697792
  H         3.6841129913        2.2595682519       16.0873412534
  H         3.9906821667        3.1270385779       18.3537060871
  H         5.3992079172        1.9435452858       20.0919958373
  H         6.4264197154       -0.2448504078       19.4817480075
  H         6.4835577925       -0.8991517467       17.0491639243
  C         4.0576187280       -0.6501177340       12.7992830256
  C         3.1061848801       -1.4220799748       12.1118878212
  C         2.0590633103       -2.0035586830       12.8275444331
  C         2.1494697402       -1.8677729558       14.3275991691
  C         3.2229549223       -1.3233871111       15.0004171344
  C         6.1625771349        0.6622275786       12.8675874012
  C         5.1847287347       -0.0458848018       12.0974911889
  C         5.1112316070        0.3877728063       10.7155881361
  C         4.3105401437        1.5263723471       10.5210890758
  C         4.3327828551        2.1884985580        9.2830598318
  C         5.0955909962        1.7214788480        8.2075948923
  C         5.8028179305        0.4757260207        8.3442925082
  C         5.7475837413       -0.1686555923        9.5771259718
  H         6.3831680541       -1.0010991863        9.8015898137
  H         6.4981818499        0.1436170678        7.6002816398
  H         5.1147669107        2.3560931058        7.3601475148
  H         3.6012338262        2.9931805565        9.1269924410
  H         3.7798229355        1.9200600064       11.3484919649
  C         7.3042937633        1.1945863948       12.1564871993
  C         8.3018491894        1.9035795248       12.8161908807
  H         9.1590559950        2.2543339839       12.3648634939
  H         7.3656464472        1.1066502959       11.0736127357
  C         3.2226547743       -1.5886925799       16.4888971408
  C         3.9289888792       -2.7175702459       16.9888706548
  C         3.6667774021       -3.0361209689       18.3630495588
  C         2.8180714120       -2.2574138568       19.1793911661
  C         2.2572134794       -1.0774916698       18.6812813770
  C         2.4438019022       -0.7951167910       17.3467591100
  H         1.8649514289       -0.0400798897       16.7747837987
  H         1.5779561505       -0.4313571616       19.3400028910
  H         2.6135080228       -2.5181477046       20.2043468119
  H         4.1152089581       -3.9620121912       18.7905547121
  H         4.6260449597       -3.3400184458       16.3918780587
  C         1.0689799674       -2.5702432710       15.0334052939
  C        -0.0705963201       -2.9496839841       14.4733534990
  C        -0.2135761924       -3.0479293011       13.0456607268
  C         0.8290876524       -2.6591134735       12.2532044334
  H         0.7419424788       -2.8142726376       11.1820058285
  H        -1.0904129974       -3.4895975122       12.6087169749
  H        -0.8601038855       -3.4903916562       15.0576414866
  H         1.3384491333       -2.8868491039       16.0635906286
  C         3.1537369589       -1.7093331680       10.6609968536
  C         4.1150601394       -2.6134201122       10.1104337976
  C         4.0641102716       -2.9280086541        8.7326738780
  C         3.0991248850       -2.2857557672        7.8805044636
  C         2.2832399784       -1.2945020774        8.4179802568
  C         2.3335600795       -0.9959636209        9.7369182358
  H         1.6088118121       -0.2586192585       10.0141865602
  H         1.6308982588       -0.7152467427        7.7960029510
  H         3.0476708194       -2.6440404285        6.8755314723
  H         4.7376672431       -3.6679597735        8.3376886543
  H         4.8940727870       -3.0433267922       10.7147833603
  C         0.2912018811        6.7308910126       14.0821911737
  C        -0.7732688828        7.4326514348       14.7070451467
  C        -1.8687964601        7.9437284609       13.9026499415
  C        -3.0450520486        8.4784337156       14.5201231408
  C        -4.0746767326        8.9780849428       13.7893197340
  C        -0.7679133241        7.7587021063       16.1132523151
  C         0.1113105949        8.7840228247       16.5065777801
  C         0.0912398485        9.2255784619       17.8298002052
  C        -0.7395763541        8.6248592833       18.7827730817
  C        -1.5126230269        7.4610921293       18.4553629413
  C        -1.5420167808        7.0927941371       17.1197835707
  H        -3.0197114972        8.5001902456       15.6256018456
  H        -4.9050430905        9.4261194889       14.3230412601
  H         0.6125926084        9.3869528737       15.7767834708
  H         0.7708198459       10.0219543213       18.0996446087
  H        -0.7187898137        9.0395488878       19.7890713043
  H        -2.1677615245        7.0007336113       19.1679568198
  H        -2.1747318712        6.3128272959       16.7559144194
  C         0.3557926093        6.7213492518       12.5880511633
  C         1.4344768825        5.9507705955       12.0635745313
  C         2.4792406804        5.3377386775       12.8140676497
  C         2.3661654017        5.2967565900       14.2804692885
  C         1.2202455573        5.9196025668       14.8464750825
  C        -1.7832677524        7.8878043269       12.4223380101
  C        -0.6208082197        7.3991608447       11.8068071819
  C        -0.4156907918        7.8844411016       10.3983361448
  C         0.5831364788        8.8615776729       10.3777605954
  C         0.8693536336        9.5809522614        9.1979460136
  C         0.1863561416        9.2487976333        8.0514934986
  C        -0.8284345669        8.2753160615        8.1099585345
  C        -1.1045290051        7.5569224891        9.2679282032
  H        -1.8543654712        6.7943683165        9.2650719056
  H        -1.3974295976        8.0591868699        7.2273348264
  H         0.3814747266        9.7121267781        7.0696073867
  H         1.6416578032       10.4043267333        9.2992371634
  H         1.0338451163        9.2328495124       11.2927367954
  C        -2.9344727772        8.4173308810       11.7494528631
  C        -4.0813166022        8.9175512829       12.3681803314
  H        -4.9568493657        9.1170926830       11.7918435565
  H        -2.9240546025        8.2783573279       10.7009799050
  C         1.0685301099        5.5858740498       16.2381450775
  C         0.4123038608        4.4343473236       16.7361137252
  C         0.6924222804        4.0414680184       18.0444274197
  C         1.4598120584        4.8442210255       18.9036291878
  C         2.0785882227        5.9861327446       18.4296057735
  C         1.8566508236        6.3521954820       17.1100399657
  H         2.4989027624        7.1475389889       16.6877712555
  H         2.7162414078        6.6153793560       19.0527826684
  H         1.7112707311        4.5113006038       19.9423285975
  H         0.1040796303        3.1922606446       18.4698154278
  H        -0.2496442257        3.8026417716       16.1586961312
  C         3.3484741901        4.7051574107       15.1053329168
  C         4.4467498998        4.1942557718       14.4902885386
  C         4.6021518351        4.1709756345       13.0697493768
  C         3.6795777000        4.7821269536       12.2386106046
  H         3.7153580752        4.7312095941       11.1714617184
  H         5.5225685573        3.7443362225       12.7570871571
  H         5.2603557034        3.8089778187       15.0807290581
  H         3.1879473919        4.5858262695       16.1726991272
  C         1.4709756003        5.5690239313       10.6021305232
  C         0.5861884876        4.5739044333       10.1094427502
  C         0.5446806389        4.1385634582        8.7745909530
  C         1.3550562535        4.8585327058        7.8796900543
  C         2.2623210243        5.8204969060        8.3505082617
  C         2.3885185500        6.1632597605        9.7117117644
  H         3.1184814917        6.8905252665       10.0702526068
  H         2.9346475586        6.3618011137        7.7218471748
  H         1.3477632004        4.6200753249        6.7926575430
  H        -0.3119495931        3.4563052136        8.4930279847
  H        -0.0628565299        4.0684375960       10.8146003668
