140

  C        15.0702536976       -0.3794955146        0.7470602184
  C        16.2099125776        0.1971128115        1.4348474700
  C        17.2323764444        0.7699275038        0.6853672711
  C        18.2857728314        1.4275274883        1.3831740405
  C        19.2649884604        2.0051093154        0.5791332777
  C        16.1379037905        0.6755660074        2.8724617433
  C        15.5513708866        1.9472205294        3.1147931103
  C        15.4110972719        2.5594384867        4.3711785120
  C        15.9244263326        1.8901479076        5.5084323467
  C        16.6819269425        0.7257271347        5.3244389964
  C        16.8545663188        0.1431905505        3.9983225418
  H        18.3614539040        1.5448873250        2.4702495759
  H        20.2002211744        2.4111211157        1.0323906577
  H        15.2991688181        2.5240583678        2.1940639678
  H        15.0528340777        3.5875849963        4.3840615311
  H        15.7901073241        2.3530346047        6.4691528530
  H        17.0837814319        0.1217107191        6.1595060635
  H        17.5246535069       -0.7181151452        3.9390216019
  C        14.9657442766       -0.3578490834       -0.7450740033
  C        13.8146548898       -1.0075238165       -1.3621493406
  C        12.8509674447       -1.5723608860       -0.5052014248
  C        12.9228735961       -1.6367431046        0.9055782408
  C        14.0639237678       -1.0436415663        1.5328870684
  C        17.0859149636        0.9040650347       -0.7969464752
  C        15.9174048874        0.4014479403       -1.5006594196
  C        15.8608016718        0.6735576377       -2.9573520687
  C        15.0522013241        1.6081412341       -3.5275294113
  C        15.2054706350        1.9181870472       -4.8906082454
  C        16.1165713646        1.2113426444       -5.7209993202
  C        16.8959505655        0.1788126046       -5.1989357466
  C        16.7576430793       -0.0857430922       -3.7856279232
  H        17.3565078160       -0.8512432677       -3.3206080380
  H        17.5653297781       -0.3527894103       -5.8687945495
  H        16.0336789818        1.3181411157       -6.7940977342
  H        14.5380754853        2.7112628031       -5.2427066336
  H        14.4558393652        2.2793836271       -2.9298806045
  C        18.0085041178        1.7142889218       -1.4859383271
  C        19.1247343193        2.2248371361       -0.8113787697
  H        19.8472819185        2.7809267014       -1.3857300710
  H        17.7669234353        1.9862082472       -2.5697242439
  C        14.1669686362       -1.3619052453        3.0021630423
  C        14.8746126024       -2.4920495621        3.4551826498
  C        14.7058091320       -2.8945363995        4.7620820031
  C        13.8567804578       -2.2304005497        5.6211421326
  C        13.0345287903       -1.1664090172        5.1613359431
  C        13.2507793341       -0.7051300992        3.8650845833
  H        12.7524819090        0.1683343629        3.4971515053
  H        12.5486862464       -0.6215161973        5.8680301707
  H        13.5599035006       -2.6316681528        6.6194292870
  H        15.2476384408       -3.7454167854        5.0884572116
  H        15.4920969110       -3.0771030381        2.8089881858
  C        11.8749308934       -2.2134133287        1.6938101403
  C        10.8217530898       -2.8145449976        1.1284887008
  C        10.7189027418       -2.7427148121       -0.3084243814
  C        11.6932635590       -2.1139427917       -1.0363514442
  H        11.5798362819       -2.0256405783       -2.0849314531
  H         9.9506004871       -3.3328630973       -0.8114207052
  H        10.1434808111       -3.4276222010        1.7630098661
  H        11.8904498719       -2.1652489762        2.7576992405
  C        13.8255990371       -1.3680355286       -2.8086201792
  C        14.7585029884       -2.3227018263       -3.1720659716
  C        14.8113024972       -2.7025052060       -4.5126651328
  C        14.0019902769       -2.1152030123       -5.4766455004
  C        13.0416221944       -1.1844685777       -5.1372591945
  C        12.9945974504       -0.7676618237       -3.8381255117
  H        12.2784768070       -0.0143366361       -3.5242512184
  H        12.3681014869       -0.7776967394       -5.9150872499
  H        14.0398097943       -2.4855500432       -6.4850714199
  H        15.6710497795       -3.3304178107       -4.8513373401
  H        15.5571632092       -2.6287226076       -2.4942000135
  C        11.4754879679        7.1619174920        0.9031674774
  C        10.4391665746        7.8277735200        1.6218871899
  C         9.2623339509        8.1626420762        0.9653559560
  C         8.1855194052        8.7722901912        1.6621389597
  C         7.0880938374        9.2359513014        1.0382953356
  C        10.4364266035        8.0517324658        3.1604654368
  C        11.0433713555        9.0937426281        3.7467100977
  C        10.8299548798        9.4220805910        5.0722634207
  C         9.9537108882        8.6610522093        5.9140435110
  C         9.3565234960        7.5491058700        5.3339401113
  C         9.6233801175        7.2462457563        4.0199737939
  H         8.1942570491        8.6820136316        2.7409734419
  H         6.2602059244        9.7702738551        1.4824539481
  H        11.8150153265        9.6251865554        3.0659795521
  H        11.3076988353       10.3128755765        5.4635553501
  H         9.8111162594        9.0240511703        6.9147808839
  H         8.7481978607        6.9083824177        6.0076402623
  H         9.1007578391        6.3393449718        3.5590173503
  C        11.4194571375        7.0193778568       -0.5490202617
  C        12.4023789916        6.1994321081       -1.2250995990
  C        13.6435512093        5.7941733837       -0.5774990563
  C        13.6716839469        5.9591248847        0.8853715263
  C        12.5565305737        6.5052641263        1.5970922013
  C         9.1506622133        8.0352781477       -0.4801686818
  C        10.2600452747        7.5754312311       -1.2324200836
  C        10.4667437980        8.0355631390       -2.6503279609
  C        11.4081559892        9.0533720150       -2.8570136342
  C        11.4962644996        9.6031663813       -4.1693703850
  C        10.8189984971        8.9878726569       -5.2596180089
  C         9.8701092074        8.0378495905       -5.0472888017
  C         9.6583750140        7.5779499005       -3.7406432752
  H         8.9252078227        6.8028380176       -3.5690481702
  H         9.2875171045        7.6708325971       -5.8233376277
  H        11.0778566485        9.3424520238       -6.2418688651
  H        12.1898497469       10.3803827548       -4.4147531426
  H        12.0097267919        9.5243447796       -2.0495568047
  C         7.9077677987        8.4260593893       -1.1454974387
  C         6.9278269271        9.0842153796       -0.4093247569
  H         6.1445009186        9.5642767250       -0.9015608443
  H         7.7265057318        8.2038377250       -2.1450987173
  C        12.5107580831        6.1551051839        3.0667015289
  C        11.7084343105        5.1099426974        3.6375140872
  C        11.7602750186        4.7618649092        5.0195946190
  C        12.4770583744        5.5750580448        5.8895036860
  C        13.4281247509        6.4903489015        5.3289927187
  C        13.3129153434        6.8482821037        3.9858668761
  H        13.9499221076        7.6878010923        3.6490485358
  H        14.1904160064        6.9053730088        6.0049330962
  H        12.5202981743        5.4982691125        6.9694392402
  H        11.0498466846        4.0013730531        5.3147765069
  H        11.1400433763        4.4881678558        2.9105736665
  C        14.8042076883        5.4329298570        1.5412589269
  C        15.8932554690        4.8927329013        0.9869957467
  C        15.8639439501        4.7742643976       -0.4085958766
  C        14.7560188633        5.1754611994       -1.1153909654
  H        14.7844875286        5.0539662372       -2.1865884487
  H        16.7498973083        4.3939172361       -0.8591969789
  H        16.7958921464        4.5136971040        1.5005614130
  H        14.7949729058        5.4863726113        2.6364761973
  C        12.3160225271        5.7863748414       -2.6920098972
  C        11.5030326905        4.7954294127       -3.1877235067
  C        11.5484469180        4.4617934259       -4.5943241544
  C        12.3013583756        5.2862212923       -5.4781557616
  C        13.1275744749        6.2630459846       -4.9578853760
  C        13.1643751941        6.4749536525       -3.6387147567
  H        13.7490726180        7.3417692791       -3.3363078624
  H        13.6703379837        6.8663797821       -5.6411461627
  H        12.2204538498        5.0222713008       -6.5461856707
  H        11.0904055899        3.5576261672       -4.9012128407
  H        10.8689479483        4.1354368020       -2.6057495514
