140

  C        13.9959600770        0.1206146345        1.2667280451
  C        15.0235081891        0.8010725365        2.0054305274
  C        16.1363118181        1.3627145836        1.3029387433
  C        17.1343500557        2.1376638878        1.9795419013
  C        18.1727848876        2.7869029919        1.3302392397
  C        14.8690976762        1.2264646704        3.4264587159
  C        13.9468609037        2.1690344326        3.6683335986
  C        13.8659683642        2.8259358763        4.9441233924
  C        14.6971756598        2.3227202192        5.9899593232
  C        15.5939204401        1.2744164796        5.7282188244
  C        15.6402181869        0.6662440189        4.4920979689
  H        17.0651508594        2.3047173244        3.0533237924
  H        18.9346919243        3.3344151446        1.8301874067
  H        13.2331186250        2.5761260024        2.9661397398
  H        13.1060047485        3.5444515365        5.1635382494
  H        14.5853230445        2.8457539730        6.8899000575
  H        16.2507172520        0.7809603150        6.4621494578
  H        16.2355459002       -0.1979473319        4.2523933077
  C        14.1092433967        0.0370910809       -0.2409466330
  C        13.0523794967       -0.6797395039       -0.9372112352
  C        11.8948168805       -1.0530891875       -0.2591391307
  C        11.8359026604       -1.1129518573        1.1560870996
  C        12.8983864635       -0.5351285018        1.8730070370
  C        16.2277622739        1.2089690822       -0.0911383965
  C        15.1460825023        0.7044762882       -0.9236494722
  C        15.2144113347        0.9467871293       -2.4234726750
  C        14.6508691309        2.1267686901       -2.9931029425
  C        14.7221744604        2.4331137341       -4.3765286852
  C        15.4195420586        1.5805497338       -5.2865596075
  C        15.9767557886        0.4784959496       -4.7106534740
  C        15.7812680763        0.1175613979       -3.3801468753
  H        16.2999592239       -0.7845189326       -3.1183325429
  H        16.4978608175       -0.2917992239       -5.3219155787
  H        15.5890934977        1.8243303401       -6.3449051397
  H        14.2049322415        3.3293489508       -4.6522802200
  H        14.1767007939        2.8585606610       -2.3381201219
  C        17.3560346701        1.7368181913       -0.7875607938
  C        18.3022267875        2.4903748356       -0.1263086601
  H        19.2325373557        2.7508080061       -0.6338682230
  H        17.5736323954        1.5131723898       -1.8285840743
  C        12.9377579119       -0.9659341688        3.3077649976
  C        13.7886239826       -2.0349577892        3.6210348656
  C        13.8979075949       -2.5771034967        4.9047667121
  C        13.0903210310       -2.1424658362        5.9356568504
  C        12.1615136851       -1.0950858335        5.5978106856
  C        12.0828179231       -0.4597191203        4.3125797023
  H        11.2940835987        0.2612217960        4.1596227848
  H        11.5002518491       -0.7324373431        6.3198267203
  H        13.1936474380       -2.4548622362        6.9837853359
  H        14.6935903552       -3.2200555262        5.1808309650
  H        14.4231170949       -2.3389752773        2.7759646224
  C        10.7526936509       -1.8209686885        1.8131549318
  C         9.7674596761       -2.4105931800        1.0945255019
  C         9.7578709624       -2.3005806860       -0.3495107592
  C        10.7755088597       -1.6003793761       -0.9959441477
  H        10.8433851062       -1.5497795667       -2.1300016899
  H         8.9844014811       -2.8851311702       -0.9050607689
  H         9.0919727272       -2.9948827078        1.6225329768
  H        10.8060385155       -1.8423274427        2.9203056014
  C        13.2308356144       -1.2109519972       -2.2701143190
  C        13.8435743617       -2.4625054037       -2.3719765254
  C        14.0472525306       -3.0864532532       -3.6352240626
  C        13.5376813792       -2.4512850346       -4.8292138881
  C        12.8459555667       -1.2878804723       -4.6277656080
  C        12.7069693292       -0.6443089334       -3.3902358532
  H        12.4165505372        0.3781568571       -3.3067039708
  H        12.4005576999       -0.6955412249       -5.4522803943
  H        13.7364024825       -2.7432763917       -5.8596901124
  H        14.6784179798       -3.9794594226       -3.7116926103
  H        14.2950341134       -2.8215075028       -1.4856569749
  C        10.3450813387        7.3033489721        1.0704062096
  C         9.2053808079        8.0007280030        1.7208018302
  C         8.2079119363        8.4430396031        0.8706775170
  C         7.0169658188        8.9341429693        1.4133639059
  C         6.0338772597        9.5474948615        0.6621747299
  C         9.1931939286        8.3581948765        3.1686812473
  C         9.9514756536        9.4761539193        3.5627870571
  C         9.9600144978       10.0099690595        4.8456837849
  C         9.0584201700        9.4307178844        5.7428930025
  C         8.4128009868        8.1624159843        5.4674887105
  C         8.4506265339        7.6726867744        4.1387686728
  H         6.9540621682        8.7195981502        2.4406144988
  H         5.2217876606        9.9615182123        1.2112427720
  H        10.5208019500        9.9545246554        2.7277895574
  H        10.6041136859       10.8072826121        5.0699824722
  H         9.2425275135        9.6182373702        6.7492954417
  H         7.8442884135        7.6251075028        6.2085485234
  H         7.8677057426        6.7901554953        3.9167991695
  C        10.3777347144        7.2193501668       -0.4482919370
  C        11.3829401249        6.3623970090       -1.0859339197
  C        12.4805324727        5.8460771019       -0.2930625465
  C        12.4690711762        5.9706123314        1.1391127872
  C        11.4074748086        6.7016295516        1.7858116121
  C         8.3645488222        8.5018714625       -0.5758050177
  C         9.3370323514        7.8313732093       -1.1846420231
  C         9.4772096065        8.0448603290       -2.6511565580
  C        10.3197327389        9.1293477676       -3.0072809540
  C        10.3018617496        9.6035529066       -4.3834320848
  C         9.4504152124        9.0198348094       -5.3424933423
  C         8.4934825258        8.0291906701       -4.9212419634
  C         8.5551438873        7.5586981294       -3.5743848785
  H         7.8384865887        6.7551470112       -3.2869000802
  H         7.7929811645        7.6937210904       -5.6460096530
  H         9.4618180438        9.4576152741       -6.3658908228
  H        10.9184240251       10.5110458101       -4.6081334193
  H        10.9224365540        9.6155220044       -2.2649519397
  C         7.3730048295        9.2057109766       -1.3458991514
  C         6.2562558507        9.8292183354       -0.7712846198
  H         5.5871755652       10.4418244338       -1.4055254175
  H         7.5173639479        9.3989776190       -2.4162985670
  C        11.3144601310        6.3383741785        3.1829612687
  C        10.8555984663        5.0199444031        3.4570135502
  C        10.7261799183        4.5935826656        4.7714596810
  C        11.0367093107        5.4597908296        5.8674452705
  C        11.5830141897        6.7268935049        5.5688685437
  C        11.7644349280        7.1840119468        4.2385992973
  H        12.1549136623        8.1840242873        3.9994439104
  H        11.7884736720        7.4677217365        6.3308954516
  H        10.8999592367        5.1761446961        6.8827281968
  H        10.2826265630        3.5896818226        4.9174757656
  H        10.7180574963        4.4132262833        2.5240293931
  C        13.5151738321        5.4643558702        1.8903629753
  C        14.6429506712        4.9301705366        1.3634624898
  C        14.6796187147        4.7549182502       -0.0932369468
  C        13.6171801366        5.1332739278       -0.8556698204
  H        13.7303613057        4.9371843573       -1.9671037482
  H        15.5534793365        4.4188922907       -0.6928431340
  H        15.6071079571        4.7293751936        1.8574001980
  H        13.3430920690        5.6682236702        2.9485434980
  C        11.2486488598        6.0006049978       -2.5265698090
  C        10.4195139871        4.9244503170       -2.9772454552
  C        10.4267570648        4.5398652377       -4.3511358814
  C        11.3675739551        5.2989302543       -5.1652780761
  C        12.3189526178        6.1632294976       -4.6724756004
  C        12.2562419722        6.5819956529       -3.3423452801
  H        12.9168255434        7.2997868740       -2.9373625451
  H        12.9461620434        6.5760227509       -5.4422462372
  H        11.3067269842        4.9686538580       -6.1767111186
  H         9.9185061591        3.6181317224       -4.7977505449
  H         9.7679529260        4.5357855139       -2.1984938032
