140

  C         3.8729895739       -0.2862316142       14.3146765578
  C         4.9566037873        0.3609350554       15.0225830005
  C         6.0341633064        0.8939038702       14.2944028961
  C         7.0193316058        1.7715614532       14.9417874988
  C         8.0959173495        2.2865957787       14.3192455719
  C         4.7614704307        0.8723526422       16.4308828400
  C         4.0166993607        2.0129995322       16.7924871447
  C         4.0105995718        2.5506922200       18.1014145543
  C         4.7761296876        1.9402376605       19.1194583384
  C         5.6154730807        0.8897069075       18.7195849291
  C         5.4664290118        0.2818322416       17.5077301264
  H         6.9152572245        1.8186397451       16.0035215692
  H         8.6449312875        3.0682060647       14.8518055656
  H         3.5259514009        2.6525253488       16.0487484468
  H         3.4095751093        3.4388071582       18.3801591358
  H         4.8393612795        2.3974752107       20.0919474010
  H         6.3228251810        0.5702341438       19.4265487784
  H         6.0901605785       -0.6025910808       17.3346677863
  C         3.9242381060       -0.3719783922       12.8263812627
  C         2.8407190759       -1.0013624154       12.0828952913
  C         1.7563043543       -1.5725199325       12.8104661913
  C         1.7589612112       -1.5333125016       14.2887932602
  C         2.7702556353       -0.9384106086       15.0245832140
  C         6.1165228842        0.7833405166       12.8954686823
  C         5.0463084504        0.2206542921       12.1667226581
  C         5.0735154963        0.4121072591       10.6899640282
  C         4.3525166896        1.4722679041       10.1765813134
  C         4.5622229402        1.9059489344        8.8300486287
  C         5.5451783065        1.3208159777        8.0303823071
  C         6.2115414029        0.1544151024        8.5204238737
  C         5.9835666730       -0.2578242894        9.8313092339
  H         6.4674223037       -1.1517320690       10.2181651168
  H         7.0358547003       -0.2453540444        7.9034283914
  H         5.7277343529        1.7278865528        7.0130801378
  H         3.9813567594        2.7238629527        8.3643877183
  H         3.6050638523        2.0723561982       10.7409829417
  C         7.3603249932        1.3033739923       12.2876038615
  C         8.3356020071        2.0329472251       12.9353452649
  H         9.2787049025        2.3960530290       12.4560642942
  H         7.4504500797        1.1421112757       11.2203487865
  C         2.8127421081       -1.2581642536       16.5117733623
  C         3.5274241782       -2.3800092638       16.8370661212
  C         3.6473205538       -2.8193804114       18.1646687591
  C         3.0163555433       -2.0962666097       19.1114477207
  C         2.2166356694       -0.9843508043       18.8378213964
  C         2.2218582152       -0.4489531781       17.5426942279
  H         1.9055904464        0.5834303468       17.3037287798
  H         1.6141182828       -0.4954850607       19.5898430709
  H         3.0713598743       -2.4149741660       20.1123569878
  H         4.1748342273       -3.7606169084       18.4379796431
  H         3.9598412272       -2.8955015332       15.9773680099
  C         0.7311258756       -2.2275148241       15.0050365480
  C        -0.2253037199       -2.9535376786       14.3127595243
  C        -0.2352864650       -3.0222905950       12.8749543430
  C         0.6150889754       -2.2354331458       12.1374575033
  H         0.6493441033       -2.0336407839       11.0753338786
  H        -0.9479122188       -3.6467347538       12.3758737683
  H        -1.0660865604       -3.3578633518       14.8765294057
  H         0.6232843716       -2.1936443034       16.0676591877
  C         2.7943354767       -1.3255981168       10.5536113586
  C         3.6834728496       -2.2156739090        9.9789860840
  C         3.6578994855       -2.3547770695        8.5562167393
  C         2.7700930884       -1.5944419051        7.8120614209
  C         1.8440902459       -0.6949309086        8.4015929912
  C         1.9722175404       -0.4916653137        9.7492603943
  H         1.4521846869        0.3485437901       10.3080396218
  H         1.3736644483       -0.0682819863        7.6572819039
  H         2.8089676461       -1.7098289793        6.7558703312
  H         4.3102872395       -3.0086699937        8.1007215559
  H         4.2810671300       -2.8227891503       10.6286241609
  C         0.2241033416        6.9344630265       14.1808804401
  C        -0.8110552304        7.5828991306       14.9342586847
  C        -1.8404544664        8.1681810137       14.2464894144
  C        -3.0006333876        8.7960409738       14.8943629707
  C        -4.0792223353        9.3961264886       14.2054351596
  C        -0.7047291459        7.7860116977       16.3829844806
  C         0.1409244225        8.8530856403       16.7953067372
  C         0.3133852291        9.2433609432       18.1432347232
  C        -0.4249149795        8.5737067921       19.0973644770
  C        -1.2055932378        7.4613807399       18.7288553776
  C        -1.3049100454        7.0837511296       17.3994964760
  H        -3.0615156980        8.8664127636       15.9792953807
  H        -4.8966735081        9.7834276287       14.8115157520
  H         0.7305538112        9.3613126260       16.0603313061
  H         0.9993270218       10.0283050014       18.4400847533
  H        -0.4263334142        8.8607260038       20.1584371929
  H        -1.7811951423        6.8554108028       19.4242132988
  H        -2.0270892854        6.3235962327       17.1077712493
  C         0.2395839628        7.0632325513       12.7162796826
  C         1.3141032457        6.4063522041       12.0325861847
  C         2.3936563200        5.7208926687       12.6866567122
  C         2.3308605455        5.6518945605       14.1337793950
  C         1.2663575207        6.2083989979       14.8425628475
  C        -1.8839213774        8.2112134924       12.7775021747
  C        -0.7740054517        7.7522922548       11.9938543336
  C        -0.6449276375        8.1288011653       10.5433673790
  C         0.2370806829        9.1784524466       10.2017766248
  C         0.0596191230        9.7896675011        8.9278662861
  C        -0.8310638704        9.2888473314        7.9975714710
  C        -1.7100473998        8.2660176948        8.3601523054
  C        -1.5305112708        7.6459155112        9.5462300808
  H        -2.1821365335        6.8539066293        9.8331731972
  H        -2.4560271006        7.9121340215        7.6754662509
  H        -0.8888056252        9.6608701358        7.0055070570
  H         0.5900001971       10.6672330305        8.6688560450
  H         0.9050645139        9.5984777799       11.0276969867
  C        -2.9981120526        8.8719808601       12.0615817106
  C        -4.1450018731        9.2622422248       12.7707956361
  H        -5.0229337161        9.6623293582       12.2821151433
  H        -3.0119295640        8.9557575964       10.9453472429
  C         1.1384277749        5.8397163916       16.3215107010
  C         0.3047635334        4.7684631790       16.6292705340
  C         0.2168663968        4.2612956207       17.9479182788
  C         1.0753692413        4.7998991550       18.9035507470
  C         1.8964425330        5.8824335805       18.6406851200
  C         1.9356856941        6.4006625614       17.3304053964
  H         2.7086208308        7.1214074559       17.1110644700
  H         2.4613658632        6.4503824745       19.4014029395
  H         0.9812717179        4.3888332816       19.9259716326
  H        -0.4979775123        3.4824926498       18.2461501759
  H        -0.2338581373        4.3485812058       15.7777402770
  C         3.4453321271        5.0525003518       14.8680990806
  C         4.5361145907        4.5232595928       14.1917993921
  C         4.4681882087        4.4072066019       12.7657014610
  C         3.4393892410        4.9295878875       12.0945571522
  H         3.4157780047        4.9326211460       10.9950183904
  H         5.2849709042        3.9377730426       12.2193021135
  H         5.3089854398        4.0542325471       14.7539157399
  H         3.4668158566        5.0257091858       15.9528772329
  C         1.2294946278        6.0950035001       10.4883486205
  C         0.4502529333        5.0134989945        9.9742868070
  C         0.4718674348        4.7088767058        8.6309929904
  C         1.3185152973        5.3386215960        7.7365295811
  C         2.2186390884        6.3163872892        8.1847754577
  C         2.0989006084        6.7164297962        9.5467707070
  H         2.7631025332        7.4562175326        9.9637087553
  H         2.9280630509        6.9034334589        7.5434558275
  H         1.2023984997        5.0599926141        6.6495685915
  H        -0.2618740359        4.0079178666        8.2791049563
  H        -0.1652594541        4.5244084277       10.7613450310
