140

  C        14.7579057567       -0.4721919057        0.5647406119
  C        15.7774056008        0.2596041370        1.2391806067
  C        16.8850718982        0.8336475048        0.6123749475
  C        17.9209855005        1.4819689870        1.3472121684
  C        18.9505353165        2.1381258546        0.6220400737
  C        15.5606656995        0.6087637199        2.6505025704
  C        14.6968757182        1.5945741827        3.0522848097
  C        14.5496170638        1.9702948451        4.3931976828
  C        15.4242743942        1.5185286218        5.3893649508
  C        16.2732469668        0.4221464983        5.0461778388
  C        16.3743310975        0.0823727157        3.6754931774
  H        18.0264890512        1.4928061351        2.4517721111
  H        19.7196444817        2.7558436958        1.1542737983
  H        14.1712118749        2.1282516499        2.2470576302
  H        13.8638978504        2.7591840181        4.5673853897
  H        15.2967357313        1.9666284473        6.3985267685
  H        17.0188424118        0.0078662711        5.7533107502
  H        16.8748933122       -0.7977289468        3.3457250744
  C        14.7534639124       -0.4512775880       -0.8650588843
  C        13.7229920067       -0.9893238910       -1.6390339001
  C        12.5776388305       -1.5399802985       -0.9797862482
  C        12.5956614051       -1.6141307777        0.4850155218
  C        13.6976199606       -1.1614674669        1.2046697852
  C        16.9042898762        0.6739261590       -0.8893589420
  C        15.8022245197        0.1984821288       -1.5683092752
  C        15.6451969931        0.7391942859       -2.9334291680
  C        14.7931912857        1.8319570351       -3.1918215948
  C        14.9004947448        2.5677843155       -4.3318002014
  C        15.7393158567        2.1826663126       -5.3996839366
  C        16.6308829595        1.1059926392       -5.1610597397
  C        16.5274505583        0.3939095807       -3.9406756036
  H        17.1562819972       -0.4653150726       -3.8291333223
  H        17.3071203763        0.7635558158       -5.9481695028
  H        15.8370625510        2.7014497076       -6.3234076030
  H        14.1418048837        3.3404855174       -4.4764160868
  H        14.2241064288        2.2539020231       -2.3615534645
  C        17.8477841604        1.5575711106       -1.4658327228
  C        18.9243616579        2.2096320994       -0.7851267156
  H        19.6719433155        2.7871719978       -1.3016834931
  H        17.7474214890        1.7484063365       -2.5621464145
  C        13.6804674914       -1.4459395488        2.6987390968
  C        14.5056159912       -2.3633246616        3.3222794324
  C        14.3916126259       -2.7247350322        4.6016282812
  C        13.5511183525       -2.0020423969        5.5156698456
  C        12.7174209751       -1.0412426497        4.9700388598
  C        12.7664388839       -0.7170170204        3.5976792596
  H        12.1072261022        0.0994375237        3.1399201747
  H        11.8892744838       -0.6001249678        5.5355991412
  H        13.5044088898       -2.2709406575        6.5245410526
  H        15.0505531331       -3.5009995217        5.0277460326
  H        15.2057204151       -2.9451610446        2.7445208817
  C        11.4582397295       -2.3562312375        1.1761264844
  C        10.4573082745       -2.8896935174        0.4188824440
  C        10.5410970566       -2.8605164981       -0.9876801862
  C        11.5082297802       -2.2022976590       -1.6750962337
  H        11.5149063342       -2.2328644164       -2.7133158086
  H         9.7174829021       -3.3866958829       -1.5207074781
  H         9.6841718161       -3.4129024417        0.9819152898
  H        11.4309408405       -2.3706449043        2.2566201011
  C        13.8831814848       -1.4279104783       -3.0918905250
  C        14.8112551177       -2.4692917189       -3.4301600836
  C        14.7029775206       -3.0980332311       -4.6796753693
  C        13.7847437866       -2.5436164007       -5.6417662302
  C        13.0597080367       -1.4129457342       -5.3733307435
  C        13.0734339057       -0.8888101318       -4.0800641810
  H        12.4676242730       -0.0800237834       -3.7557275379
  H        12.5277632857       -0.9398169738       -6.1818123548
  H        13.7248873499       -2.9900000608       -6.6542219444
  H        15.3468845961       -3.8935292824       -5.0246771020
  H        15.4762091369       -2.9298502536       -2.7065505739
  C        11.3444845721        7.1123610253        0.5799001205
  C        10.3739560068        7.8853406751        1.3524597430
  C         9.2207274008        8.3443325637        0.6461483305
  C         8.0604990574        8.9070385277        1.2864916065
  C         7.0719191888        9.4869386856        0.5759826978
  C        10.3998548729        8.2250848707        2.7852721093
  C        11.1141266935        9.3150100333        3.2780711119
  C        11.0402334427        9.6035110817        4.6482506927
  C        10.1645823157        8.9549046300        5.4669684966
  C         9.5169957398        7.8155400959        5.0234178133
  C         9.5811331994        7.4444759959        3.7211321559
  H         7.8835497664        8.7259847048        2.4180250354
  H         6.3987357390       10.1785550989        1.1512899471
  H        11.7849297606        9.8759920451        2.5980361877
  H        11.4764838758       10.5539813466        5.0257198647
  H        10.0590653152        9.2559865926        6.5418851649
  H         8.9534643617        7.2861057764        5.7016071426
  H         9.1833444645        6.4926722010        3.4023307709
  C        11.3505215301        7.1677474662       -0.9020477412
  C        12.3962565532        6.3826669921       -1.5927310961
  C        13.4480335075        5.8227395255       -0.8451146120
  C        13.3307480084        5.7871581759        0.6077214219
  C        12.2749257195        6.3702638561        1.3316804375
  C         9.2919223274        8.4299229028       -0.7811364681
  C        10.3165651092        7.8687638340       -1.5749352590
  C        10.3201517188        8.1661732535       -3.0721075363
  C        11.1096162967        9.2826487287       -3.4130108947
  C        11.0685584930        9.7321116495       -4.8120452621
  C        10.2866388385        9.0923751908       -5.7790978286
  C         9.6671574583        7.8704455321       -5.4401738057
  C         9.6358746647        7.4805348341       -4.1340034400
  H         9.0910754420        6.6156689734       -3.7782712645
  H         9.1241654117        7.3208021748       -6.2392122812
  H        10.0935428606        9.6036240061       -6.7629656569
  H        11.6274281579       10.6352480742       -5.1101145419
  H        11.7750136008        9.7400572442       -2.6674720205
  C         8.1367262956        9.0828101718       -1.4391285690
  C         7.0842223836        9.6289220794       -0.7946248290
  H         6.3205565760       10.0321395230       -1.3796100604
  H         8.1371085243        9.0436465514       -2.5431061483
  C        12.1958310169        5.9848772434        2.8097997171
  C        11.5455604922        4.8218498911        3.3539038940
  C        11.5032485786        4.5678741385        4.7261641960
  C        12.3357341890        5.3062195758        5.5753170923
  C        12.9574684037        6.4446747097        5.1372310340
  C        12.9431128487        6.7426489309        3.7813611990
  H        13.5500228815        7.5783976049        3.4735510037
  H        13.6588438324        7.0419713861        5.7070486630
  H        12.4175040457        4.9714692543        6.5869183541
  H        11.0499338600        3.6450210282        5.0915951041
  H        10.9189168984        4.2341306786        2.6069225022
  C        14.3699329793        5.1115613498        1.3449225499
  C        15.3988224031        4.4757365437        0.7285712090
  C        15.4268664943        4.3699758127       -0.7427599793
  C        14.4100114344        4.9668969465       -1.4199304894
  H        14.3195330616        4.7163413708       -2.5219864172
  H        16.2544263925        3.7744990366       -1.2390300134
  H        16.1161009760        3.9562318525        1.3195497089
  H        14.3643166833        5.0613813387        2.4429133886
  C        12.2979869495        6.1048111946       -3.0672846633
  C        11.5846938562        5.0236095032       -3.6319553577
  C        11.6492344934        4.7041836414       -5.0122540230
  C        12.3834213990        5.4395352308       -5.9129003379
  C        13.1124310887        6.5948596917       -5.3944691222
  C        13.0996446540        6.8183678870       -4.0289837573
  H        13.6736740022        7.5719268885       -3.5662485034
  H        13.6904424456        7.1464714664       -6.1101809100
  H        12.3964915748        5.4434322110       -7.0242309761
  H        11.2062307179        3.7576188360       -5.2200896189
  H        10.9354123499        4.3989110671       -3.0241918914
