140

  C        14.8493527249        0.0826033826        0.8190254873
  C        15.9190923469        0.7932190571        1.4732578592
  C        17.0107266723        1.2550805861        0.7147604091
  C        18.2019634408        1.7936282872        1.3274225358
  C        19.2492368315        2.2915740389        0.5731853552
  C        15.8989859697        1.0624400907        2.9253487542
  C        14.9039119976        1.9619605369        3.3836009394
  C        14.8772347848        2.4360949196        4.7269320736
  C        15.8088233364        1.8347103407        5.5772008267
  C        16.7157475714        0.9022147257        5.2064299016
  C        16.8463037134        0.4320589158        3.8565901852
  H        18.2818164667        1.7540002365        2.3881350131
  H        20.1079130547        2.7872055811        1.1172000591
  H        14.0721940728        2.3750903592        2.6604767912
  H        14.0636648997        3.0608029881        5.0973476063
  H        15.5790842270        1.9736179859        6.6107598811
  H        17.4194941405        0.4933014802        5.9720592757
  H        17.4065873661       -0.4271412768        3.6221958633
  C        14.8892157538        0.0503216792       -0.7102580683
  C        13.9033471251       -0.8097295218       -1.3570875069
  C        12.7217031688       -1.2640721216       -0.6512100568
  C        12.7766548138       -1.3402803460        0.8275272016
  C        13.8740097540       -0.6808710675        1.5266315818
  C        16.8775997970        1.2751782469       -0.7403032563
  C        15.7755657154        0.7677295063       -1.4936227416
  C        15.7372656222        1.0138091998       -2.9322576943
  C        15.0546210641        2.1325769779       -3.4241998425
  C        15.2068189868        2.5563607473       -4.7687389027
  C        15.8537663902        1.7245060131       -5.6962572062
  C        16.5037683701        0.6097703370       -5.2451799175
  C        16.4938526283        0.2597791719       -3.8728716788
  H        16.9608055364       -0.6347992123       -3.5439632556
  H        17.0996360133        0.0084262807       -5.9307621027
  H        15.8658758811        1.9696144360       -6.7459328289
  H        14.5757319434        3.3520878537       -5.2029744331
  H        14.5247649149        2.7365093479       -2.7072122875
  C        17.9726563157        1.9245953507       -1.4496370028
  C        19.0412225016        2.4742701258       -0.7878089745
  H        19.8710979913        2.8550920240       -1.3874121705
  H        17.8931194158        2.0896976045       -2.5510722070
  C        13.9875509983       -1.0691600128        3.0526587477
  C        14.8589101120       -2.0794757200        3.5077805430
  C        14.7227721618       -2.7040646123        4.7499281144
  C        13.8392243293       -2.1865890285        5.6928228612
  C        13.0222398911       -1.0671378675        5.3228034298
  C        13.0726100514       -0.5357491490        3.9820922200
  H        12.3718960748        0.3386470666        3.6699633212
  H        12.1073009810       -0.8756436675        5.8825340169
  H        13.7744729986       -2.6301376471        6.7471341991
  H        15.3839408212       -3.5276287347        5.0710823803
  H        15.5675188964       -2.3590142588        2.7562632099
  C        11.7460229578       -1.9605966457        1.5821166649
  C        10.7060176386       -2.5991811480        0.9289768405
  C        10.6655193775       -2.6819750146       -0.4597696443
  C        11.6100465629       -1.9316513444       -1.1967034749
  H        11.5213571670       -1.9509391133       -2.2806648941
  H         9.9367418812       -3.2850271608       -1.0402988608
  H         9.8945161064       -3.0938509525        1.4825999557
  H        11.6675594229       -1.9367534477        2.6553319861
  C        14.1078812022       -1.4239935366       -2.6496818979
  C        15.0600037093       -2.4401105572       -2.7414718819
  C        15.0379623991       -3.3697669833       -3.7935039735
  C        14.1655436448       -3.2459224059       -4.8438772462
  C        13.3106339574       -2.0918404029       -4.9278411930
  C        13.2531041154       -1.2366025477       -3.8037660810
  H        12.6106020012       -0.3888850806       -3.7456541491
  H        12.6617913775       -1.9370960072       -5.7724129032
  H        14.1397134385       -4.0033517638       -5.6430001845
  H        15.5967891321       -4.3043029583       -3.6529980891
  H        15.7072042562       -2.6312375139       -1.8987783815
  C        10.9875698709        6.9045450657        0.7962626968
  C        10.0315446177        7.6929310124        1.4720595480
  C         8.9221195766        8.2759082017        0.8500951524
  C         7.9323126199        8.9895925972        1.5665897471
  C         6.8437469122        9.4747763723        0.8741757591
  C        10.1879607070        8.0078681182        2.9224924459
  C        11.2331298156        8.9198192536        3.2598329567
  C        11.3400839595        9.4190734468        4.5878073700
  C        10.3601018024        9.0746820842        5.5608464002
  C         9.3378433199        8.1306805910        5.2234374967
  C         9.3039821742        7.5547406034        3.8815359787
  H         7.9857484223        9.0286149779        2.7217402228
  H         6.1774834841       10.2400719844        1.3629496497
  H        11.9495786410        9.3155536494        2.4792577794
  H        12.1184349996       10.2220553280        4.7848715767
  H        10.3702778440        9.4124001018        6.5635093764
  H         8.6937911362        7.7636570408        5.9895990955
  H         8.5219866757        6.8381169627        3.6471141305
  C        10.9721582665        6.9562157178       -0.6395101547
  C        12.1669808192        6.3173920896       -1.3055618613
  C        13.2155125256        5.6954800740       -0.5754844988
  C        13.1139001916        5.7692034102        0.8247819859
  C        11.9817498953        6.1988464671        1.5214015240
  C         8.7776204194        8.1275888303       -0.5612157326
  C         9.9021161713        7.6359967336       -1.2883622204
  C         9.9387063248        7.7839705929       -2.7994287958
  C        10.6748418592        8.8831187653       -3.4527970227
  C        10.5300912877        9.2287638253       -4.8137351456
  C         9.8557670676        8.2962949538       -5.6549322561
  C         9.1406204709        7.2919641330       -5.0615810743
  C         9.2677244001        6.9931550270       -3.7316539181
  H         8.6746419302        6.1493017131       -3.4368437747
  H         8.4872867248        6.6380741802       -5.6810272474
  H         9.9108613469        8.4976858512       -6.7643078295
  H        11.0651968284       10.1326900815       -5.1592456923
  H        11.2889883211        9.5727345972       -2.8355534300
  C         7.6404968057        8.6647613430       -1.2248400837
  C         6.6324600916        9.2864297003       -0.4871923522
  H         5.7325057561        9.6470672429       -0.9703075123
  H         7.5865893862        8.4452086599       -2.3170199315
  C        11.9484896071        5.9137567034        2.9930549654
  C        11.1614201045        4.8548554922        3.3540973469
  C        11.1987966267        4.2787578482        4.6047840480
  C        12.1920441789        4.8149613472        5.5246270131
  C        13.0563381989        5.8631441029        5.1502586791
  C        12.8216988853        6.5211414940        3.9031798206
  H        13.5016177185        7.2826501865        3.5678121874
  H        13.7423263305        6.2306768813        5.8987533958
  H        12.2278525609        4.4919747416        6.5506809822
  H        10.5312925331        3.4736249211        4.9440090672
  H        10.3778776754        4.5045822937        2.6152491236
  C        14.2142055567        5.2715089020        1.5853623267
  C        15.2747007820        4.6949201413        0.9568142769
  C        15.2040987163        4.4365740279       -0.4430412428
  C        14.2378906771        4.9608752040       -1.2034535174
  H        14.1711504392        4.6477643625       -2.2593935801
  H        16.0311535491        3.9153341223       -1.0272746063
  H        15.9735863461        4.2115862044        1.6383626614
  H        14.1514575309        5.1553796189        2.6968425149
  C        12.0736877332        5.9397833044       -2.8204443614
  C        11.2276308341        4.7738814623       -2.9144023305
  C        11.1809238775        3.9327113005       -4.0894531664
  C        11.8394817233        4.4395981367       -5.2275893447
  C        12.6176562952        5.5952480309       -5.2186842338
  C        12.8068503739        6.2603135917       -4.0021132063
  H        13.4217240513        7.0986180277       -4.0518668392
  H        13.0873544170        5.9484448975       -6.1247714037
  H        11.6345577188        3.9318247327       -6.2150257082
  H        10.7663772189        2.9473864481       -4.1914821831
  H        10.7329483043        4.3940230641       -2.0397508676
