140

  C        15.6389689492       -1.1371468216        0.4351036242
  C        16.6322241865       -0.3637929016        1.1582786334
  C        17.6230007515        0.3500275918        0.4817757438
  C        18.7132010629        0.9541487353        1.1108042700
  C        19.7401210065        1.5175202327        0.3870429314
  C        16.4547908532       -0.0275572065        2.6027136813
  C        15.5083110310        0.9720480340        2.8187689605
  C        15.4221571981        1.6139889616        4.1364843103
  C        16.1367436985        1.0739754932        5.2200493726
  C        17.0907241169        0.0594760816        5.0645244413
  C        17.2378545115       -0.4821949885        3.7619818107
  H        18.6519127113        0.9474024975        2.1867440374
  H        20.5662531154        2.0141392979        0.9349941204
  H        14.8903764721        1.3951820314        2.0627951831
  H        14.8148571523        2.5237802824        4.2579561814
  H        15.9500522783        1.4318794413        6.2167432228
  H        17.6167977291       -0.2631657910        5.9835874025
  H        17.9340582808       -1.2992906365        3.6682962484
  C        15.5868736813       -1.1000631630       -1.0093847356
  C        14.4596301985       -1.6982307965       -1.6473571987
  C        13.3955006558       -2.3171795322       -0.9133201675
  C        13.4992311473       -2.4115949797        0.5370621465
  C        14.6481978946       -1.9623297013        1.2088306989
  C        17.5466526533        0.3535617657       -0.9804304467
  C        16.5680132993       -0.2692251145       -1.6735641211
  C        16.3926434421        0.1674334839       -3.1660503541
  C        15.6880344064        1.3170776246       -3.3693116385
  C        15.7136350550        1.8939774997       -4.6031619920
  C        16.4002789513        1.2623688484       -5.6300425089
  C        17.2076162657        0.1195378652       -5.4295044574
  C        17.1170601384       -0.4701552615       -4.1844440645
  H        17.6799981418       -1.3978911508       -3.9629434280
  H        17.7948300438       -0.3906785639       -6.2438675612
  H        16.4236393672        1.7036226656       -6.6566124001
  H        15.1385057917        2.8148210234       -4.7537059811
  H        15.3002744602        1.7899560145       -2.4819982508
  C        18.6131665542        1.0634460950       -1.6728647258
  C        19.6486674117        1.6752496643       -1.0331102746
  H        20.3622997862        2.2793312048       -1.6214906070
  H        18.5445634758        1.1308725944       -2.7748955239
  C        14.7286773475       -2.3256286314        2.6923354694
  C        15.6013065913       -3.2846980053        3.1204476655
  C        15.5579223875       -3.7849382956        4.4588093345
  C        14.5620771090       -3.2906498193        5.3389733885
  C        13.6495806377       -2.3168659220        4.8891162080
  C        13.6709112280       -1.8193345412        3.6192222331
  H        13.0137192780       -1.0700631907        3.1672765477
  H        12.8142128523       -2.1206756765        5.5292221491
  H        14.4502504193       -3.6589768546        6.3917961507
  H        16.2229859744       -4.5564050107        4.8503268849
  H        16.2896035675       -3.7056667828        2.5210603206
  C        12.4110480985       -3.0465195706        1.2569331188
  C        11.1845422326       -3.2471742761        0.6051597470
  C        11.0600012900       -3.2373457899       -0.7972833350
  C        12.1936987537       -2.9007425332       -1.5352282384
  H        12.2446342999       -2.9362687755       -2.6278016383
  H        10.1806649604       -3.6961447827       -1.3052680581
  H        10.3081629550       -3.4396517567        1.1497570885
  H        12.4231808185       -3.2103773766        2.3104477773
  C        14.3960637193       -1.9494499645       -3.1504328043
  C        15.0137015018       -3.0615744900       -3.7321033467
  C        14.9411719422       -3.3873377750       -5.0683854361
  C        14.0720839904       -2.6649223428       -5.9332722987
  C        13.4589502856       -1.5003705085       -5.3634012961
  C        13.6167127286       -1.1233755533       -3.9660678771
  H        12.9694086958       -0.3325091656       -3.6007170462
  H        12.7409970998       -1.0150817249       -6.0275631482
  H        14.0731020597       -2.8278216730       -7.0527607615
  H        15.5326902546       -4.2570323152       -5.3376930946
  H        15.6565260826       -3.7071168448       -3.2111947766
  C        11.7413317401        6.4565842236        0.5319569317
  C        10.7101781814        7.2822434417        1.1096176669
  C         9.7889203659        7.9217385431        0.2947764209
  C         8.5259231800        8.4846174994        0.8861306691
  C         7.5353879511        8.9183435027        0.0465130691
  C        10.6820158966        7.5980021909        2.5791324449
  C        11.5344938905        8.6155945260        3.0796569282
  C        11.5267544740        8.9851598379        4.4320048515
  C        10.6334013610        8.3517984660        5.3349159995
  C         9.8284438346        7.3451722796        4.8411831693
  C         9.8005713125        6.9660996735        3.5146457578
  H         8.5118576539        8.5153502332        1.9824573914
  H         6.5994553506        9.2992267608        0.4670610575
  H        12.1804876487        9.1322339511        2.4116290626
  H        12.2784542295        9.6648311993        4.7374064295
  H        10.6412642062        8.7006254644        6.3581528788
  H         9.1220377444        6.6823810780        5.4498025023
  H         9.2343930789        6.1083916893        3.2350527777
  C        11.9083202462        6.4077442938       -0.9726922294
  C        12.8901166287        5.5359240072       -1.5405354381
  C        13.9914955891        5.0617680784       -0.8327695071
  C        13.8663104140        5.1817614609        0.6676318192
  C        12.7319442410        5.7467884136        1.3275253431
  C         9.9253810617        7.9014914265       -1.1567580399
  C        10.9695260541        7.2001399017       -1.7752849931
  C        11.1534252360        7.4778856830       -3.2580756458
  C        11.9260601516        8.5892280685       -3.7529858325
  C        11.7468900406        9.1133760094       -5.0180832469
  C        10.8120534369        8.3856017587       -5.9115516071
  C        10.1043031696        7.3116608743       -5.4683211493
  C        10.2341373599        6.8272996071       -4.1368937615
  H         9.6447103137        5.9830880343       -3.7570756364
  H         9.4016155380        6.8793283158       -6.1327260991
  H        10.5543181881        8.7474913298       -7.0015147367
  H        12.3352112090        9.9888922098       -5.3331080560
  H        12.6202971346        9.0297841192       -3.0428905089
  C         8.9012365943        8.6044413789       -1.9158998191
  C         7.7501588505        9.0980135190       -1.3492668797
  H         7.0827337577        9.6909498703       -1.9745742303
  H         8.9157724772        8.5216288539       -3.0262384636
  C        12.6407439855        5.3666958445        2.8424135324
  C        11.7848105825        4.3608379978        3.2163572009
  C        11.6346803073        3.9313887220        4.5520183763
  C        12.4958924256        4.4329766367        5.5076836349
  C        13.4343215418        5.4386542830        5.1350384803
  C        13.4238126167        6.0194594250        3.8832950492
  H        14.0997767617        6.8257754159        3.5317086661
  H        14.1584071713        5.8605227544        5.8316475697
  H        12.4854592092        4.1215830717        6.5270303164
  H        10.9424744611        3.1136426493        4.7940096527
  H        11.1649842720        3.9125488430        2.4533974669
  C        14.9274734614        4.5234685800        1.3612920775
  C        16.0399290849        3.9513483693        0.7669385440
  C        16.2510047131        4.1272611788       -0.6289673464
  C        15.1987000514        4.5937559557       -1.4528561638
  H        15.3277265274        4.7518437124       -2.4624348950
  H        17.1646244370        3.6504155139       -1.0527824386
  H        16.7235981415        3.5221154153        1.4700310639
  H        14.8131584286        4.4861015392        2.4475512336
  C        12.8120994425        5.0794561236       -2.9835911070
  C        11.8544726028        4.0686731807       -3.3552282148
  C        11.7859402777        3.5535895254       -4.6242124726
  C        12.5819105902        4.1040768467       -5.6339450496
  C        13.5594773118        5.0933805834       -5.3444339150
  C        13.5857807708        5.6194139564       -4.0872748774
  H        14.3012518789        6.3739186138       -3.6563817908
  H        14.3322497270        5.3030902094       -6.0664349022
  H        12.4390432978        3.6792875072       -6.6888481465
  H        10.9730112821        2.8445200146       -4.7945297019
  H        11.1757324753        3.7553989416       -2.5683174021
