140

  C        14.5211378921       -0.1289108464        0.9862229319
  C        15.5215998483        0.6542534330        1.7417036993
  C        16.6649530461        1.2607823171        1.0729170627
  C        17.6574878427        2.0407681139        1.7508085608
  C        18.6745101718        2.6477192654        1.0884856851
  C        15.4044092106        0.9705917455        3.2003944349
  C        14.7594975986        2.1174302138        3.6479491778
  C        14.8040374501        2.4767692044        5.0209948255
  C        15.5985637707        1.7041341348        5.8986688635
  C        16.1667855601        0.5104608272        5.4631952375
  C        16.0939612192        0.1146517768        4.1420306199
  H        17.6221598032        2.1509082172        2.8337233453
  H        19.4865213385        3.1247412050        1.6356991691
  H        14.1965842048        2.7730140830        2.9123925385
  H        14.2400419571        3.2713548024        5.4656727207
  H        15.5952171065        1.9767645071        6.9266339424
  H        16.7260712661       -0.1358750455        6.1284087671
  H        16.5884023542       -0.7595437860        3.7510164610
  C        14.5925551498       -0.1041411735       -0.4948231296
  C        13.5518257993       -0.7562817485       -1.1812306226
  C        12.4934648404       -1.4445770216       -0.5305685049
  C        12.4904366576       -1.5506812810        0.9266869266
  C        13.5241184120       -0.9393186058        1.6368893838
  C        16.6974141670        1.2256279470       -0.3821220233
  C        15.6156391096        0.6797234784       -1.0560657307
  C        15.6031877605        1.0520098448       -2.4583336725
  C        14.7208073906        1.9621897106       -3.0603328732
  C        14.8723869215        2.4586981272       -4.3706382265
  C        15.7141978719        1.8177746397       -5.2957401815
  C        16.6010943373        0.9211605721       -4.6787259994
  C        16.5567470299        0.5683591191       -3.3493987973
  H        17.2542798939       -0.2467711082       -3.0743459525
  H        17.2918889220        0.3482486313       -5.2800264340
  H        15.7691835337        2.0177264129       -6.3462825905
  H        14.2402592220        3.3063612908       -4.6380953396
  H        13.9993493136        2.5025592331       -2.4635697261
  C        17.7512212418        1.9126111069       -1.0182918414
  C        18.7888358757        2.5524537801       -0.3443597294
  H        19.5819821772        3.0512470620       -0.8725412497
  H        17.9511343772        1.7761178757       -2.1058426796
  C        13.5313103964       -1.1934998614        3.0967580842
  C        14.2186765541       -2.2267348910        3.6499319866
  C        14.0760217649       -2.5073552465        5.0036490052
  C        13.2936505529       -1.7070845933        5.8009534694
  C        12.4838124140       -0.6785328918        5.2108417235
  C        12.6567763945       -0.3922390106        3.8549578942
  H        12.0984387629        0.4153718976        3.3370835425
  H        11.7530595533       -0.1832222595        5.8809769326
  H        13.2139484480       -1.9851681950        6.8340616891
  H        14.7899701469       -3.1505575912        5.5391856857
  H        14.9946060996       -2.6766385746        3.0082496699
  C        11.4340991853       -2.2943882447        1.5930911205
  C        10.4009689371       -2.8026620239        0.8539499019
  C        10.3107683619       -2.6358251981       -0.5276530377
  C        11.3888756151       -2.0528770748       -1.2108129983
  H        11.5724470324       -2.0003583306       -2.3084992919
  H         9.5249774239       -3.1402417822       -1.0993224042
  H         9.6110584761       -3.3195996782        1.3969484949
  H        11.4984313824       -2.4637991086        2.6542291824
  C        13.7220981488       -0.9000197152       -2.6922577261
  C        14.5599194911       -1.9564871968       -3.1861988504
  C        14.4950066736       -2.4156229459       -4.4789165497
  C        13.5088315190       -1.8998767539       -5.3552720244
  C        12.6989459703       -0.8657042870       -4.8929660581
  C        12.8494405720       -0.3142542631       -3.5696084888
  H        12.1177010513        0.4036055727       -3.2222856502
  H        11.8669182090       -0.6125405154       -5.4843801788
  H        13.2709303017       -2.3336236627       -6.3699028444
  H        15.1341002346       -3.2399226747       -4.8133823865
  H        15.2661292017       -2.4834648951       -2.5029580300
  C        10.9436247867        7.2934658964        1.1240336071
  C         9.9397509772        7.9801585734        1.8952002142
  C         8.8345782932        8.5062311286        1.1733185884
  C         7.9484695753        9.4348029641        1.8505116239
  C         6.9569513535       10.1022453355        1.2305227282
  C         9.8993951223        8.2559863801        3.3799863655
  C        10.6333211751        9.3542005369        3.9208361731
  C        10.7228501077        9.6107914759        5.3240540075
  C         9.9937398732        8.7441145732        6.1616373813
  C         9.0692226823        7.7703012798        5.5823801399
  C         9.0405462029        7.5913348457        4.2065902744
  H         8.1626034464        9.5353239267        2.9584485389
  H         6.2390615352       10.7532264794        1.8077503486
  H        11.3555896870        9.8534569015        3.3778567419
  H        11.3617376311       10.4044514738        5.8060782605
  H        10.0891398308        8.8949474817        7.2625122384
  H         8.4499425667        7.1636566772        6.2470171328
  H         8.5121749236        6.7536225624        3.7602095011
  C        10.8516176544        7.2002355542       -0.3939342848
  C        11.8169530604        6.4506739032       -1.1146366867
  C        12.9857576638        5.9468806786       -0.4435473116
  C        13.0166387563        5.9230718668        1.0121599240
  C        11.9302152501        6.5366953951        1.7763275502
  C         8.6651942289        8.2878279184       -0.2397677874
  C         9.6413594720        7.7056265897       -0.9944339579
  C         9.6508899287        7.9747973750       -2.4605840496
  C        10.2143070120        9.2291198475       -2.9319635271
  C        10.0845693174        9.4693548982       -4.2806292613
  C         9.4544687860        8.5683402789       -5.1417845793
  C         8.8519874816        7.3870395145       -4.6443647908
  C         8.9734323897        7.0940710771       -3.2711750749
  H         8.5576969270        6.2071373775       -2.7648534450
  H         8.4662948085        6.6512165318       -5.3462801638
  H         9.3919993559        8.8024518670       -6.2308454814
  H        10.5374010777       10.3335370116       -4.7022555335
  H        10.6916548033        9.9512146226       -2.2914887360
  C         7.4997713712        8.8005939894       -0.8269579827
  C         6.7669492219        9.8231744847       -0.1771705558
  H         6.0482488195       10.3900788031       -0.7637899537
  H         7.3509897885        8.6811337861       -1.9385047302
  C        11.9815521301        6.1354571854        3.1944690798
  C        11.2302834453        5.0647606583        3.7337998424
  C        11.3877000262        4.7006124325        5.0639997331
  C        12.1748256219        5.4797947573        5.9618666629
  C        12.8879120730        6.5618654896        5.4402870517
  C        12.7850067574        6.8722148751        4.0719308471
  H        13.2649916597        7.7495449398        3.6838726075
  H        13.5133487320        7.2244172269        6.0544021692
  H        12.2892494254        5.2094716560        6.9993617211
  H        10.9592635403        3.7403029705        5.3514729549
  H        10.6371597430        4.5234372277        3.0036142784
  C        14.1388146730        5.2904499367        1.5210487303
  C        15.1166979179        4.5789127224        0.8421847306
  C        15.0343959249        4.5225392596       -0.5785789773
  C        13.9519197728        5.2282040049       -1.1405628249
  H        13.8814524704        5.2441240292       -2.2436503198
  H        15.6554602322        3.8282041700       -1.2050260891
  H        15.9590932841        4.0891950153        1.3274006158
  H        14.2842928497        5.4075105170        2.6113890004
  C        11.6688088531        6.1078436407       -2.5798699294
  C        11.1129729561        4.9109023717       -2.9109346773
  C        11.0613117955        4.5482735807       -4.2484511873
  C        11.6045535101        5.3803494652       -5.2365442198
  C        12.2204190379        6.5606835634       -4.8789601093
  C        12.2900643863        6.9398360924       -3.5489422869
  H        12.8709096948        7.7891830769       -3.2042903071
  H        12.7515033017        7.0821363449       -5.6755183256
  H        11.6627078092        4.9349229795       -6.2013184990
  H        10.5866930276        3.5116703217       -4.4215313988
  H        10.8193830526        4.2471555397       -2.0767288749
