140

  C        12.6087939969        0.8702740778        1.4453732162
  C        13.6785003973        1.5451673836        2.0753782545
  C        14.6627906083        2.2198062397        1.3111961442
  C        15.6278968047        3.0723594766        1.9721846626
  C        16.5472022228        3.8387581470        1.2316351505
  C        13.5796509441        1.9456721795        3.4542306505
  C        12.7338213244        3.0701177068        3.7243902342
  C        12.6898185191        3.6165556764        4.9654674080
  C        13.2077309176        2.9394953569        6.0879833477
  C        14.0140672086        1.8903408727        5.8370815583
  C        14.2282473763        1.3653774248        4.5299374763
  H        15.6976372949        3.1383756366        3.0346160001
  H        17.2481337539        4.4597578260        1.6984482199
  H        12.2894742675        3.6239531130        2.8839016837
  H        12.1394354150        4.5823069465        5.0866328095
  H        13.2112159730        3.4168853675        7.0437540339
  H        14.5378024082        1.3305081187        6.6391043976
  H        14.7607013674        0.4162272385        4.4215142208
  C        12.5785778108        0.8120894291       -0.0611217538
  C        11.4593466496        0.1706248291       -0.6734331835
  C        10.3683749851       -0.2275928986       -0.0002411802
  C        10.3550339179       -0.1594213228        1.4806446903
  C        11.5690681563        0.2019131012        2.1744493394
  C        14.6618294935        2.1860326391       -0.0762805129
  C        13.6018926829        1.5310249888       -0.7457136276
  C        13.4264782120        1.8640184193       -2.1948944987
  C        12.5623215899        2.8734374847       -2.5435093931
  C        12.4147554360        3.3345129751       -3.8651363876
  C        13.2526687770        2.8003726449       -4.8562019780
  C        14.1231556944        1.7389764047       -4.5063462677
  C        14.2792423870        1.3435609880       -3.1743884393
  H        15.0434940545        0.6504512759       -2.8753682015
  H        14.7383911302        1.2334199405       -5.2677400948
  H        13.2321463483        3.1783422252       -5.8826539285
  H        11.6115780957        4.0452817993       -4.0357065545
  H        12.0434480675        3.3814084439       -1.7337301814
  C        15.7300883262        2.7854036868       -0.7550875045
  C        16.5669953310        3.6237808022       -0.1572852283
  H        17.2559981965        4.1724963130       -0.7569901039
  H        15.7943040046        2.7658368315       -1.8251158558
  C        11.6925736993       -0.1348602889        3.6154014214
  C        12.5965479002       -1.1721782458        3.9231135998
  C        12.5874390212       -1.7197950647        5.1777612482
  C        11.7515725581       -1.2869333525        6.2229417075
  C        10.8933840832       -0.1550715536        5.9271128841
  C        10.9064580066        0.4338725597        4.6471070140
  H        10.3271771699        1.3660923958        4.4503512768
  H        10.3689970542        0.3354068986        6.7352042818
  H        11.7403503049       -1.7497169848        7.1940593002
  H        13.3034996310       -2.4868108922        5.2842102973
  H        13.3662848375       -1.5296690995        3.1539483132
  C         9.3281629229       -0.8713936928        2.2026554283
  C         8.2730803026       -1.4452175497        1.5184696404
  C         8.3414223354       -1.5159011538        0.0996951095
  C         9.3332023486       -0.9611277124       -0.6824212854
  H         9.4100527601       -1.0550197402       -1.7333851278
  H         7.5670133228       -2.1325443987       -0.3653264295
  H         7.3667741265       -1.7327880357        2.0565523138
  H         9.3547086005       -0.7700851570        3.3105061222
  C        11.5529727173       -0.1360193608       -2.1440111673
  C        12.4104955487       -1.1549092823       -2.5250760199
  C        12.3874203187       -1.6179294325       -3.8701988707
  C        11.5430726423       -1.0640034183       -4.7965590307
  C        10.7589111899        0.0595775763       -4.4521851978
  C        10.6979046383        0.4956611210       -3.1030669539
  H        10.0033685376        1.2509919851       -2.7568050255
  H        10.1858421060        0.5785654629       -5.2278854562
  H        11.6735000266       -1.3418536755       -5.8070069985
  H        13.0571810923       -2.5064312586       -4.0546751316
  H        13.0914749177       -1.5453419320       -1.8049077972
  C         8.6726781948        8.0233314553        1.7476416244
  C         7.6498148996        8.7496696143        2.4261679408
  C         6.5509019236        9.2510867752        1.7271001148
  C         5.5644601544        9.9968945497        2.4989579428
  C         4.6229421727       10.6990358941        1.7912397346
  C         7.8300830286        9.1547477631        3.7984531370
  C         8.4488097394       10.3239095851        4.1731642753
  C         8.5320240730       10.6525866283        5.5322964642
  C         7.7762276112        9.9236355715        6.4939036187
  C         7.0494499229        8.8479260806        6.0277262925
  C         7.1563465813        8.3955212083        4.7163039346
  H         5.6880966762       10.2467959805        3.5144801271
  H         3.9237844660       11.3322134444        2.3005864547
  H         8.9917079870       10.8741766654        3.4367779055
  H         9.1152993212       11.5583740729        5.7982371396
  H         7.6826191127       10.2773532498        7.5521041037
  H         6.3724637382        8.2362844276        6.6295470552
  H         6.6174337248        7.5315289495        4.4100440173
  C         8.6260210980        8.0299302116        0.3055461731
  C         9.6293792706        7.3403061826       -0.4123906970
  C        10.7389757015        6.7932982273        0.2287378820
  C        10.8709716065        6.9209387062        1.6745449519
  C         9.7944713974        7.4856035411        2.4166352734
  C         6.5205308685        9.2350583967        0.3273061350
  C         7.5689732368        8.6640587092       -0.3537380502
  C         7.7762258658        9.0916439599       -1.8170857514
  C         8.7287908565       10.1013781881       -2.0951049769
  C         8.9671839235       10.5912817676       -3.3379166965
  C         8.0774402806       10.2132157885       -4.3398761714
  C         7.1475245283        9.2269670961       -4.2176049357
  C         6.9990296879        8.6349154198       -2.9439043458
  H         6.2070645139        7.9040846208       -2.7921253362
  H         6.5264660861        8.9061125335       -5.0497854767
  H         8.2984537103       10.6784590879       -5.3458224333
  H         9.6520013139       11.3775075332       -3.6591016639
  H         9.2914340570       10.3825512121       -1.1995014312
  C         5.4178872929        9.8646697668       -0.2884073213
  C         4.4468176399       10.5123355079        0.4060167445
  H         3.6120403364       10.8647711863       -0.2042220753
  H         5.1698592317        9.6554993934       -1.2909772457
  C         9.7737929383        7.1895445656        3.8991264023
  C         9.0082468724        6.1173593289        4.2979681227
  C         9.2436921933        5.5132258317        5.5343897282
  C        10.1557692771        6.0315100810        6.4175121232
  C        10.8744532154        7.2449347028        6.1136602784
  C        10.7023427757        7.7579638132        4.7756689560
  H        11.3281093691        8.6237593950        4.5278771117
  H        11.5227955600        7.7501241702        6.8330887575
  H        10.3770924668        5.6038657957        7.3802030899
  H         8.6319586402        4.6765364319        5.9316890632
  H         8.2686228102        5.8438458733        3.5644418518
  C        12.0776491706        6.3561753743        2.2460774555
  C        12.9809757705        5.6756732501        1.4642844692
  C        12.7706784401        5.4689127303        0.0732158276
  C        11.6537497335        6.0046112600       -0.4563345643
  H        11.4822811183        5.9913269139       -1.5501826551
  H        13.5928091300        4.9875690083       -0.5329223692
  H        13.8883977835        5.3428142437        1.9467527240
  H        12.3554751421        6.6139273721        3.2638378606
  C         9.4908422041        6.8993699765       -1.8476517102
  C         8.7075687151        5.7648339104       -2.1556982161
  C         8.5904462165        5.1814826901       -3.4291543396
  C         9.3171390424        5.7854737612       -4.4885699583
  C        10.2270624581        6.8051434066       -4.2146625158
  C        10.2767153552        7.3077356723       -2.8994220681
  H        10.9323605227        8.1626006014       -2.7536053493
  H        10.8644317294        7.2646591628       -5.0048502135
  H         9.2519274350        5.3948988860       -5.5306987243
  H         7.9789719329        4.2845186032       -3.5321503802
  H         8.1114976625        5.3112578771       -1.4039810402
