140

  C         2.5635437393        0.3613477589       14.8456622303
  C         3.6172771379        1.0584057783       15.4846446042
  C         4.7451578157        1.5139526486       14.8206208356
  C         5.8341116762        2.1396643835       15.6185410605
  C         6.9263497792        2.6456475857       14.9946105412
  C         3.5190912130        1.4746979493       16.9414506926
  C         2.5614477596        2.4417737775       17.3947834183
  C         2.5295090481        2.8051205574       18.7405300256
  C         3.3786134669        2.2313245354       19.6678786905
  C         4.3347225109        1.2991633534       19.2678768180
  C         4.3756246227        0.9171891130       17.9009434564
  H         5.8450511298        2.2401267040       16.6707738190
  H         7.8166281896        2.9531384774       15.5596363150
  H         1.7506127085        2.7107034556       16.7328261235
  H         1.7464258372        3.4768257589       19.0972890251
  H         3.3877065706        2.4781941849       20.7046895921
  H         5.1291692651        0.9328822748       19.9650564852
  H         5.1712346675        0.2201104362       17.5945323414
  C         2.6341234142        0.3093369592       13.3340888770
  C         1.5864992555       -0.4139918681       12.7088606333
  C         0.4923502524       -0.9601680925       13.4194568604
  C         0.4576954562       -0.9017896958       14.8486358912
  C         1.5670322282       -0.4297805819       15.6068545819
  C         4.7609881246        1.5521449105       13.3288979259
  C         3.6258683404        1.0348573453       12.6437038230
  C         3.7516870622        1.3029105837       11.1992252460
  C         3.2159107040        2.5120215380       10.7544918678
  C         3.3803914033        2.9782989224        9.4523278300
  C         3.9792795717        2.1334130427        8.5530682120
  C         4.4950498394        0.9034417776        8.9760484736
  C         4.4969431581        0.5159256821       10.2809640404
  H         5.0633296315       -0.3411764488       10.6724778774
  H         4.9811437961        0.3284140520        8.2346216634
  H         4.0549686151        2.4969950423        7.5181532968
  H         2.9002247640        3.8921722655        9.1061759238
  H         2.6473294587        3.0856336720       11.4632779523
  C         5.8694806564        2.3247510823       12.7609985507
  C         6.9428472622        2.6575555202       13.5352833276
  H         7.8140697855        3.2192599349       13.0942798199
  H         5.8428150099        2.4228582419       11.6569117014
  C         1.6113927723       -0.7864374600       17.0442445214
  C         2.2002106849       -1.9861690468       17.4065406843
  C         2.2607727866       -2.2677310543       18.8185240649
  C         1.5189652570       -1.5621107315       19.8027318583
  C         0.8725347567       -0.3306472532       19.3484847097
  C         0.9257724254        0.0501200303       17.9721349897
  H         0.4566438120        1.0209524852       17.6723579771
  H         0.3848331081        0.2766585648       20.0955192891
  H         1.6480406791       -1.7982780348       20.8478420024
  H         2.9061713226       -3.0636099457       19.0834574998
  H         2.6586898496       -2.5902780017       16.5655250220
  C        -0.7110479705       -1.5288188681       15.4269212178
  C        -1.7482944466       -2.0524621593       14.6651267765
  C        -1.7117824376       -2.0143043011       13.2232099370
  C        -0.6596469889       -1.4525750931       12.6755794153
  H        -0.6342242998       -1.3606259150       11.6068873701
  H        -2.5343886880       -2.4417316897       12.5558780429
  H        -2.6799073101       -2.4138654904       15.1529132133
  H        -0.7467541578       -1.4567103567       16.4925871010
  C         1.5238065590       -0.5919921880       11.1934302397
  C         2.1429045592       -1.7402471466       10.7264862146
  C         2.0376412210       -2.2254648055        9.4500647295
  C         1.2634266502       -1.4527513452        8.5186793886
  C         0.7535937488       -0.2352704831        8.9419479389
  C         0.8714644209        0.1997163377       10.2813723232
  H         0.3290326313        1.0804212918       10.5939927245
  H         0.0195950777        0.2568252053        8.2679160686
  H         1.1469052796       -1.6993233175        7.4439202971
  H         2.2978421458       -3.2004655559        9.0754346230
  H         2.7953178124       -2.2774600170       11.4320456045
  C        -1.0401087892        7.3262807741       14.7219684432
  C        -2.0619690774        8.0101303407       15.4342015187
  C        -3.1191224199        8.6916426784       14.8285386705
  C        -4.2167939892        9.3078410652       15.5543905301
  C        -5.2077555401       10.0662350678       14.9381032189
  C        -1.8012955524        8.4937320803       16.9105820043
  C        -0.9048008330        9.5706249072       17.1669108753
  C        -1.0054573510       10.2490725090       18.3920673175
  C        -1.8531782894        9.7434978628       19.4045885306
  C        -2.6259676453        8.6010753588       19.1746465008
  C        -2.5322343272        8.0134775013       17.9414654928
  H        -4.2027638369        9.1907083400       16.6278988116
  H        -6.0047575215       10.5763811093       15.5086667694
  H        -0.2193276074       10.0291628697       16.4439616771
  H        -0.3537684401       11.0871623355       18.5612091524
  H        -1.9145918297       10.3002196844       20.3623065122
  H        -3.2196428045        8.1587675097       19.9442979964
  H        -3.2912215457        7.2487801042       17.8848561299
  C        -1.0613213887        7.4702457879       13.2118571730
  C        -0.0176735884        6.8118982764       12.4879360961
  C         1.1344766132        6.3117221967       13.1914300015
  C         1.1571263885        6.1657820809       14.6002760521
  C         0.0080375647        6.5676053791       15.3392967252
  C        -3.1214961254        8.8060494034       13.3564611967
  C        -2.1123636744        8.2511758272       12.6078814539
  C        -2.0100626522        8.6401452679       11.1514787253
  C        -1.2177301146        9.6733519796       10.6322166856
  C        -1.2710643139       10.0738004837        9.2833008500
  C        -2.1111087092        9.4504178990        8.3219051811
  C        -2.9103015885        8.4156752958        8.8490018680
  C        -2.8751644512        8.0210019212       10.2190597477
  H        -3.5292641543        7.2316341201       10.4972920469
  H        -3.6409943034        7.8842447685        8.2106642949
  H        -2.3191002492        9.9418701284        7.3713618460
  H        -0.5770732786       10.8701103674        9.0195409264
  H        -0.5853592167       10.2069980187       11.2654424627
  C        -4.2357185989        9.4943276795       12.7831791935
  C        -5.2673712278        9.9798677486       13.5246600672
  H        -6.0592005227       10.5531773196       13.0440191837
  H        -4.3228185554        9.6301863488       11.7024307880
  C        -0.1123057504        6.2332931274       16.8143405236
  C        -0.9963578564        5.1734062555       17.1220533537
  C        -1.2904559303        4.8793124119       18.4179486307
  C        -0.6617370036        5.5274103289       19.5090051074
  C         0.2762734943        6.5484910210       19.2110712893
  C         0.5101371392        6.9224558789       17.8450638111
  H         1.1241264701        7.7821472042       17.5398364126
  H         0.7863024345        7.1821314101       19.9526495829
  H        -0.7283350294        5.2632315816       20.5611249907
  H        -1.9615570167        4.0874819913       18.5763980874
  H        -1.4878880697        4.6175355683       16.4020794639
  C         2.3541867722        5.6804005745       15.2641534447
  C         3.3553364235        5.0760953083       14.4953422788
  C         3.2059473523        5.0168823172       13.1149132317
  C         2.0750464566        5.5282830881       12.4628225222
  H         2.0693419115        5.5764493238       11.3736738917
  H         3.9224405948        4.5513063900       12.4427395628
  H         4.3089203928        4.8080440800       14.9389381473
  H         2.4181149791        5.7953392404       16.3470454999
  C        -0.0907316906        6.5715051485       11.0256003464
  C        -0.8933183670        5.4846220332       10.7219840260
  C        -0.8361050407        5.0207522084        9.3819291962
  C        -0.0525514578        5.6830505691        8.4066998268
  C         0.7933225656        6.7456537762        8.8009402234
  C         0.7132272623        7.2041756720       10.0959426661
  H         1.2418640389        8.0281591110       10.5438522160
  H         1.4725867572        7.0802015515        8.0763138260
  H         0.0270573435        5.2728572442        7.3826421736
  H        -1.5732636349        4.3016028380        9.0817838513
  H        -1.3915271978        5.0194860676       11.5461910154
