140

  C        15.7685990456       -0.5248982231        2.5536083517
  C        16.7468415245        0.1437875707        3.3587366671
  C        17.8285254668        0.7662316521        2.7193581247
  C        18.8316276916        1.4259677450        3.4715749457
  C        19.8266266491        2.0677252811        2.8964144966
  C        16.5362456585        0.4567125872        4.8515098363
  C        15.7179322265        1.5770876926        5.1765858140
  C        15.7216419670        2.1051030827        6.4593721033
  C        16.6169673436        1.5113970470        7.4697561640
  C        17.3721272665        0.3673387787        7.1446353005
  C        17.3288827001       -0.1380833654        5.8324896430
  H        18.6113974500        1.5153927664        4.5107754868
  H        20.6089236535        2.5018856538        3.4945633285
  H        15.2274406361        2.1159132036        4.4356928048
  H        15.2229885685        3.0665077854        6.6550645689
  H        16.8235345445        2.0891539233        8.3552348772
  H        17.9843261661       -0.0790747123        7.9121830301
  H        17.8208994705       -1.0636987290        5.6122234107
  C        15.7248587575       -0.3056843813        1.0511790648
  C        14.5969436967       -0.8168852432        0.3183856627
  C        13.5283000189       -1.4072126872        1.0268285079
  C        13.4728426576       -1.5062204000        2.4724381084
  C        14.6744610358       -1.1557345733        3.2178179377
  C        17.9192050389        0.7781751515        1.2647605099
  C        16.8327845316        0.4367579894        0.4833279854
  C        16.8282174911        0.8821594045       -0.9325403566
  C        15.9801302183        1.9758479990       -1.2290294252
  C        15.9147368346        2.4199465386       -2.6054250888
  C        16.6038541901        1.7338734200       -3.5835405881
  C        17.4808233112        0.6213698716       -3.2931060207
  C        17.6753503277        0.3246882976       -1.9637884054
  H        18.3904171476       -0.3745175767       -1.5285077181
  H        17.9610148977        0.1955170609       -4.1174677596
  H        16.3852346905        2.0148677737       -4.6613295309
  H        15.1869954251        3.2124894487       -2.8432294595
  H        15.3639066450        2.4084756497       -0.4360018792
  C        19.0546210922        1.4608579065        0.7274635148
  C        20.0667562528        2.0502651686        1.4551147068
  H        20.9559958303        2.4695539698        0.9953374906
  H        19.1434612208        1.4354978341       -0.2963365364
  C        14.7548490927       -1.4999599964        4.6427701567
  C        15.4795276243       -2.6702123555        5.0043669580
  C        15.4602913457       -3.2074395934        6.2776751852
  C        14.7489464412       -2.5802771224        7.3450949952
  C        14.0187417301       -1.4171832807        6.9807769634
  C        13.9878054936       -0.9159412796        5.7031649266
  H        13.4740917299        0.0290804555        5.4708938553
  H        13.5044278111       -0.9180273623        7.7935919309
  H        14.7316914195       -2.9021998138        8.3450323036
  H        16.0715744612       -4.0993588761        6.4811552153
  H        16.0281003196       -3.0828619177        4.1611891594
  C        12.3888685593       -2.0359658929        3.1746541525
  C        11.4090643777       -2.7139697841        2.4258271064
  C        11.4462310504       -2.7156822121        0.9898423156
  C        12.4235670914       -2.0607318644        0.3082124866
  H        12.3573075118       -1.9618922036       -0.7635000246
  H        10.6572301933       -3.2555985911        0.4523759014
  H        10.6359388011       -3.2830973217        2.8897262909
  H        12.3921253456       -1.9254969231        4.2463258503
  C        14.6876054921       -1.2138130181       -1.1317517606
  C        15.5055317447       -2.2968200790       -1.4252509104
  C        15.7529717272       -2.6923223186       -2.6974369002
  C        14.9386761143       -2.1877706933       -3.7446473718
  C        13.9160090848       -1.2933073073       -3.4161306989
  C        13.8241541850       -0.7806866911       -2.1332683648
  H        13.2824317374        0.0984927661       -1.8805607997
  H        13.2325260761       -0.9720465383       -4.2384248991
  H        15.1152929987       -2.5074616465       -4.8284580213
  H        16.5604912833       -3.4270005019       -2.8425178276
  H        16.0568550515       -2.7029901667       -0.5777014439
  C        12.2704746083        7.0930124738        2.7178174609
  C        11.1819042425        7.7837886341        3.3369965069
  C        10.0908396259        8.2719089261        2.5826206767
  C         9.0233230779        9.1298693617        3.0839421278
  C         8.1949149299        9.8760517627        2.3107917624
  C        11.2078065926        8.2275753516        4.7455921690
  C        12.1462984291        9.2322647608        5.1149482268
  C        12.0709176844        9.6968086124        6.4649897741
  C        11.2120418413        9.2237598599        7.3870133580
  C        10.3467161676        8.1748640793        7.0322565237
  C        10.3140139322        7.7014573056        5.7084807475
  H         8.9947836001        9.2447449098        4.1964938235
  H         7.4433229851       10.4919907235        2.8018983526
  H        12.7544495624        9.6963008349        4.3579732178
  H        12.7286646143       10.4771719415        6.7096580419
  H        11.2406986365        9.6350295634        8.4246171945
  H         9.7158802804        7.6649556937        7.7748217357
  H         9.5537877224        7.0286670379        5.4347918844
  C        12.3022762594        6.9715001482        1.2295735479
  C        13.4368724501        6.2714913855        0.6571593355
  C        14.4892673948        5.8611031810        1.5164416885
  C        14.3730132136        5.8177731213        2.9159520910
  C        13.2129913862        6.4017003487        3.5058185456
  C        10.1854432058        8.2531929136        1.1027441297
  C        11.3283463721        7.7048919450        0.4875535757
  C        11.4748007763        8.0304969944       -0.9858646263
  C        11.9818396477        9.2903429930       -1.2843860793
  C        11.9594381540        9.8359910383       -2.5990235720
  C        11.2820973511        9.1837540944       -3.6284600872
  C        10.6741135710        7.8946920295       -3.2881941578
  C        10.8316236529        7.2915884277       -2.0343764228
  H        10.4219385178        6.3480101606       -1.6447349441
  H         9.9854290143        7.4900331259       -4.0730843328
  H        11.0346972927        9.5983487986       -4.6494892163
  H        12.3959531653       10.8322714442       -2.7016522694
  H        12.3375620436        9.9333251901       -0.5117029761
  C         9.2481547812        9.0163532490        0.2934708224
  C         8.2611493473        9.7694204169        0.8976120803
  H         7.5962173342       10.3515379945        0.1986766664
  H         9.2650659511        8.9743005237       -0.7760149454
  C        13.0532385856        6.0263045526        4.9839631734
  C        12.1352858681        4.9853414331        5.2426042131
  C        11.7837684594        4.5312648933        6.5096852920
  C        12.4437157908        5.1205000377        7.5537935017
  C        13.4643731972        6.0479805765        7.3516317526
  C        13.7588093574        6.4625957455        6.0567554974
  H        14.5238271726        7.2699251871        6.0248455523
  H        13.9754946997        6.5301336821        8.2103960357
  H        12.0863571926        4.8529218657        8.5366404300
  H        11.0413454958        3.7508638723        6.6066481926
  H        11.6081873166        4.6202394500        4.3400379856
  C        15.3115930500        5.0456884851        3.6602130991
  C        16.3686614767        4.4086521801        3.0326395178
  C        16.5650838712        4.5539327084        1.6395661106
  C        15.6225237022        5.2329815339        0.9232834024
  H        15.7818739477        5.3524364230       -0.1576666586
  H        17.4087872451        4.0301682470        1.1625049671
  H        17.1152686811        3.8878994290        3.6603814192
  H        15.0473863837        4.7931696180        4.7015955210
  C        13.4732052148        5.8851840424       -0.7547220303
  C        12.8873811974        4.7443983927       -1.3379515397
  C        12.9231262538        4.4340804045       -2.7036024570
  C        13.6778210222        5.2160469069       -3.6159852435
  C        14.2902840856        6.3712242013       -3.0273371599
  C        14.1544455978        6.6949041024       -1.6861373050
  H        14.6429402931        7.6124353104       -1.3836596443
  H        14.8085554445        7.0719506608       -3.7098923428
  H        13.9435482244        4.9359446910       -4.6473648262
  H        12.3845531717        3.6077126226       -3.1281634296
  H        12.3617585679        3.9951462792       -0.7612123570
