140

  C        14.6805669333       -0.1671263865        0.5515830743
  C        15.6757610207        0.5042014821        1.3510606155
  C        16.8119059255        1.0385826745        0.6923024642
  C        17.8665569807        1.6546620721        1.4963230490
  C        18.9593727379        2.2034427219        0.8999529805
  C        15.5440184007        0.7596353825        2.8452523897
  C        14.8721739620        1.9199078857        3.2358344291
  C        14.8462362795        2.3292926148        4.5956546522
  C        15.5123073537        1.5957061857        5.5543067545
  C        16.2099511302        0.4188690316        5.2326098659
  C        16.2309601063        0.0635270506        3.8619969721
  H        17.6791448872        1.6532978594        2.5919928852
  H        19.5897979116        2.8544368941        1.5591327243
  H        14.6154717334        2.6197101658        2.4100734524
  H        14.4804480155        3.2778205169        4.8281831791
  H        15.4325477064        1.9106813942        6.6111026621
  H        16.8954830323       -0.1651044236        5.8353126857
  H        16.7845142573       -0.8252299316        3.5681666321
  C        14.6767051221       -0.0525967357       -0.8876015573
  C        13.7656388663       -0.6808530942       -1.6933105482
  C        12.6148967504       -1.2915016657       -1.0722263698
  C        12.4635998195       -1.3194827973        0.3220775088
  C        13.5465504860       -0.8503889140        1.1176678543
  C        16.9078776234        1.0891098464       -0.7401424177
  C        15.7838173143        0.6758015606       -1.4880036656
  C        15.8856963353        0.8680918752       -2.9677234123
  C        15.2767438658        1.9521738993       -3.5838363832
  C        15.3870304794        2.2132715009       -4.9455556599
  C        16.3571526521        1.4372375935       -5.6282758178
  C        17.0358533060        0.3649690029       -4.9971001630
  C        16.8206611593        0.0697267567       -3.6700834338
  H        17.3795931382       -0.7351940307       -3.2579939821
  H        17.6725709876       -0.3033278664       -5.5789335269
  H        16.6390426381        1.6409790724       -6.6675034792
  H        14.7152051732        2.9911201797       -5.3583793476
  H        14.7550563260        2.6547876373       -2.9304371459
  C        18.1577945997        1.6724790563       -1.2981375751
  C        19.1493640976        2.2110228869       -0.5281220117
  H        20.0874306902        2.4981235919       -0.9479102933
  H        18.2677956725        1.7032243004       -2.4002868385
  C        13.5511529003       -1.3267293896        2.5718520711
  C        14.4317781447       -2.4237429295        2.7411276763
  C        14.5090140854       -3.0139329778        4.0358486403
  C        13.6541738517       -2.4614046345        5.0554063939
  C        12.7712958604       -1.4218061628        4.8402938993
  C        12.7327461322       -0.8556000579        3.5660783954
  H        12.0726544067        0.0452173675        3.4623618292
  H        12.0618168608       -1.1332269689        5.6132151683
  H        13.7903764793       -2.9367679598        6.0205165360
  H        15.2484020649       -3.8482800649        4.1982746183
  H        15.0829692974       -2.7906204194        1.9765257546
  C        11.2038325758       -1.8772858188        0.8099357012
  C        10.1609875814       -2.3099987853        0.0187148354
  C        10.2829292115       -2.1930387466       -1.3683350514
  C        11.4937477510       -1.7921961574       -1.8911077428
  H        11.5611302904       -1.6990724437       -2.9275514809
  H         9.5266354514       -2.5411830255       -2.0899974188
  H         9.2553357472       -2.6595486661        0.5033349228
  H        11.0954357489       -1.9843041958        1.8843152973
  C        13.8332160456       -0.9830459857       -3.1914442822
  C        14.5460521103       -2.1046178717       -3.5491695147
  C        14.7650974443       -2.4586249928       -4.8741826303
  C        14.0854055756       -1.7993926403       -5.9010006897
  C        13.2428103597       -0.7425480924       -5.4966728823
  C        13.2207095398       -0.2737715753       -4.1758354523
  H        12.6065113225        0.5617152720       -3.9065525998
  H        12.7175026738       -0.1932365673       -6.2291906383
  H        14.1204082643       -2.0671510798       -6.9797214975
  H        15.3240085906       -3.3768528267       -5.0406430541
  H        15.0696584789       -2.6463095467       -2.7801584930
  C        11.2615863883        6.9746208601        0.4865264298
  C        10.2458633567        7.7424767300        1.1339524040
  C         9.2195860016        8.2931597741        0.3583565002
  C         8.0416125755        8.8296768971        0.9823941790
  C         7.0761486203        9.5177689768        0.2309432686
  C        10.2178347325        8.0135985934        2.5381309000
  C        10.9178071760        9.1574567892        2.9290870434
  C        10.8852507239        9.5600653488        4.2647242473
  C        10.0671880829        8.9338782327        5.1828546072
  C         9.4443961646        7.7816594068        4.7764356870
  C         9.3833749142        7.3764616986        3.4272280506
  H         7.8570907371        8.7969737595        2.1009214543
  H         6.2175044088        9.8167332161        0.8351199216
  H        11.3937810351        9.8663210472        2.2098794427
  H        11.4848553794       10.4484492477        4.5758523916
  H        10.0880389141        9.2387480135        6.2895027781
  H         8.9006856755        7.2134179300        5.4515722511
  H         8.8208577831        6.5475043832        3.0471665831
  C        11.2978094474        6.8840751609       -1.0167097368
  C        12.3075877101        6.0343009164       -1.6250909915
  C        13.3440443583        5.5421816509       -0.8112736476
  C        13.3520228225        5.6155692354        0.6501814286
  C        12.1905168218        6.1966022445        1.2524981759
  C         9.3042427837        8.4032603086       -1.0779754359
  C        10.3843653244        7.6788319678       -1.7759125747
  C        10.3879462762        7.9984665040       -3.2457775987
  C        11.0601888386        9.1193605316       -3.6624237819
  C        11.0039019095        9.5827761178       -4.9965678462
  C        10.1497401043        9.0336869971       -5.9031462619
  C         9.2896240717        8.0461098922       -5.4294152708
  C         9.4082355992        7.4427677811       -4.0955940654
  H         8.7339726335        6.7258266853       -3.6916591353
  H         8.5305847094        7.5818815223       -6.0807423425
  H         9.9896071982        9.3982569037       -6.9379708009
  H        11.6392980680       10.4099152969       -5.3419526029
  H        11.7560096963        9.6300204023       -2.9984551743
  C         8.3279666809        9.2049471040       -1.8038202213
  C         7.2616490422        9.7742664841       -1.1592682725
  H         6.4726996824       10.1916228425       -1.7655567267
  H         8.4618401251        9.3871605675       -2.8753309461
  C        12.0380713376        5.8921855170        2.6826075410
  C        11.3727528748        4.7496238477        3.1383184751
  C        11.4136449855        4.2937896552        4.4323773514
  C        12.1672143589        4.9675589063        5.3796550415
  C        12.7926460130        6.1641543399        4.9643357077
  C        12.7873858107        6.5403687538        3.6192834007
  H        13.3826377807        7.4224219235        3.4306360053
  H        13.3594072003        6.7779586947        5.6779474132
  H        12.1073077824        4.6287652926        6.3947544266
  H        10.8116903372        3.3813234455        4.6963041958
  H        10.7843370602        4.1565630887        2.3789814844
  C        14.4873353019        5.0498550506        1.2654992335
  C        15.6484808317        4.6332143931        0.6617656764
  C        15.6450607103        4.5604191838       -0.7658084120
  C        14.4809869379        4.9335214446       -1.4620044814
  H        14.5151993262        4.9207898826       -2.5908397749
  H        16.5234562111        4.2287145016       -1.3565250434
  H        16.5204232305        4.2509902405        1.2278890373
  H        14.7241428252        5.1854652590        2.3262905251
  C        12.2404256454        5.5953880430       -3.0482358200
  C        11.2971680137        4.6969738235       -3.4108961189
  C        11.0483221930        4.2468687595       -4.7329058526
  C        11.9735369969        4.6626144316       -5.7183278337
  C        13.0020937013        5.4916255275       -5.3309577665
  C        13.1321077042        6.0247650161       -4.0000540693
  H        13.6347631731        6.9538729425       -3.7455289440
  H        13.7857969890        5.7208774461       -6.0673220775
  H        11.9892076675        4.3811205698       -6.8253704078
  H        10.1722319801        3.6472429081       -4.8772224262
  H        10.5518797740        4.2581678647       -2.7121299484
