140

  C         4.0334145007       -0.2199778685       14.1059599331
  C         5.0205290889        0.5254959782       14.8981065093
  C         6.1524817425        1.0432441734       14.1560635385
  C         7.0732040383        1.8710422763       14.8509565155
  C         8.1703480281        2.4040512778       14.2695838139
  C         4.9561026489        0.8331280364       16.3327500544
  C         4.0910573753        1.9013719451       16.8419940339
  C         4.1082642860        2.3645570914       18.1688048038
  C         5.0609499676        1.7825169116       19.1027115383
  C         5.8115258549        0.6906615712       18.6544154495
  C         5.7922425199        0.2229542038       17.3370255782
  H         7.0208930109        2.0802560047       15.8939261713
  H         8.9515561600        2.9432239071       14.8299851746
  H         3.3457052541        2.2932258246       16.1865762275
  H         3.4449156480        3.1983429673       18.4092551615
  H         5.0202572981        1.9083185204       20.1743774077
  H         6.4428299756        0.1468960048       19.3360137836
  H         6.4947628330       -0.5695640794       17.0528613134
  C         4.0455634911       -0.1083322450       12.6480096328
  C         3.1583880128       -0.9298009005       11.8941941467
  C         2.0367285779       -1.4668027422       12.5750199750
  C         2.0024370293       -1.5974346737       14.0158387560
  C         3.0179802126       -0.9878897287       14.7827570751
  C         6.2050128871        1.0872661737       12.6884531024
  C         5.0827350846        0.6047086190       11.9959061642
  C         5.1193557698        0.7387961854       10.5223724640
  C         4.6964977093        1.9892972734       10.0182875964
  C         4.8315788704        2.3726102175        8.6704028302
  C         5.4346688772        1.4331719156        7.8212936268
  C         5.9502870646        0.2160266854        8.2630731191
  C         5.8230110605       -0.1199794406        9.6238042848
  H         6.3004816477       -0.9781747639       10.1617084676
  H         6.4287054311       -0.5533104628        7.5708799825
  H         5.6281539276        1.6734044523        6.7554077660
  H         4.6825539125        3.4199635767        8.3776640130
  H         4.1356018523        2.6561522563       10.6715183084
  C         7.4088191177        1.5573606712       12.0643080924
  C         8.3441329824        2.1760121441       12.9027166794
  H         9.2948234531        2.5058644706       12.4333144963
  H         7.6558813393        1.4242448675       11.0087016939
  C         3.0911455887       -1.4098815933       16.2638210260
  C         3.9361254438       -2.4635686777       16.6107114676
  C         4.0640516961       -2.8222609938       17.9783916376
  C         3.2061780122       -2.2488107351       18.9472299347
  C         2.2782834235       -1.2794299447       18.5315130440
  C         2.2597760834       -0.7907661910       17.1873257707
  H         1.6355605630        0.0258815284       16.8714518183
  H         1.6756446582       -0.7801126084       19.3246628561
  H         3.2902836135       -2.4507548416       20.0003104685
  H         4.9299439958       -3.5041231666       18.2114805889
  H         4.7277734598       -2.7491562757       15.9667006641
  C         0.9121130685       -2.3014843899       14.5603105225
  C        -0.1642812390       -2.8160266005       13.8428259785
  C        -0.1167931056       -2.6385128498       12.4484255690
  C         0.9392043999       -1.9821924271       11.8541908208
  H         0.8415624805       -1.9293047834       10.7317051997
  H        -0.9363046291       -2.9557701756       11.8254016043
  H        -0.9159888228       -3.4080375225       14.3255628454
  H         1.0079850732       -2.5145391956       15.6668694467
  C         3.2307350350       -1.4471020135       10.4331317995
  C         3.6769142772       -2.7683360371       10.1528456432
  C         3.5878091716       -3.2702333436        8.8631821854
  C         2.9401308664       -2.5405377755        7.8596189656
  C         2.3425129983       -1.3123345652        8.1787199495
  C         2.5068382279       -0.7446127070        9.4448741877
  H         2.1186605893        0.2850078222        9.6845318077
  H         1.8265917102       -0.7348867181        7.4262059452
  H         2.9393799394       -2.7984412712        6.8230674502
  H         4.0442948614       -4.1731095630        8.6496341007
  H         4.1391148407       -3.3815187062       10.9349766829
  C         0.3230505412        6.9186639667       14.2657616664
  C        -0.6552418973        7.6772255900       14.9866356216
  C        -1.7293295197        8.2945831024       14.3071430513
  C        -2.7416204781        9.1327801893       14.9086923020
  C        -3.8152643710        9.6414492363       14.2550499197
  C        -0.6121779085        8.0762844018       16.4177726614
  C         0.2094053390        9.1838555593       16.7821159830
  C         0.2776183300        9.5303238710       18.1273769787
  C        -0.5567142379        9.0325140922       19.1095198849
  C        -1.4113866405        7.9538389449       18.7235549546
  C        -1.4086185754        7.4763881793       17.4165848028
  H        -2.6328150555        9.3217006490       15.9580000722
  H        -4.5129833405       10.3188830132       14.7724056494
  H         0.8352197367        9.7624345916       16.0722612278
  H         0.9506016391       10.3442697504       18.3816759637
  H        -0.5055253268        9.3377507012       20.1758336589
  H        -2.0971495764        7.4460738760       19.4583118711
  H        -2.0315449583        6.6438705106       17.0966342267
  C         0.3233482295        6.9546365780       12.7556512528
  C         1.4112896031        6.3117324865       12.0693084735
  C         2.4881274341        5.7500787648       12.7463898584
  C         2.4721819808        5.7364406163       14.1742291935
  C         1.3920669717        6.2348247529       14.9259594142
  C        -1.8042581569        8.2461738269       12.8488030389
  C        -0.7880205759        7.5636360480       12.0931948416
  C        -0.7466673669        7.8042877383       10.6068605495
  C         0.0289034082        8.8436922241       10.1766272357
  C         0.1431783450        9.0804778916        8.7928851008
  C        -0.5667539196        8.2888339883        7.8750082934
  C        -1.3149125396        7.1804918411        8.4024706978
  C        -1.3763943398        6.9467224421        9.7394048893
  H        -2.0612074451        6.1624530532       10.1339764446
  H        -1.9038657659        6.4889049942        7.8102723887
  H        -0.5518350798        8.2912670868        6.7728063292
  H         0.8086824544        9.8585802789        8.5116163870
  H         0.5164472383        9.4457213436       10.9461296861
  C        -2.9379220425        8.8598387179       12.1886848489
  C        -3.9346916024        9.4857672923       12.8758059710
  H        -4.7156441682        9.9464029135       12.2999703408
  H        -2.9274708193        8.7899962533       11.1314624699
  C         1.3977610903        5.8686596076       16.3872902349
  C         0.7735674786        4.6578494855       16.6350380073
  C         0.6295996032        4.2204704955       17.9491995032
  C         1.2886543348        4.9641825271       18.9437732695
  C         1.9573914476        6.1501324869       18.6874157014
  C         2.0242276885        6.6445490640       17.3696409590
  H         2.6690948770        7.5199170420       17.2017659176
  H         2.4910626120        6.5658510794       19.5676502825
  H         1.1625426540        4.6953946961       20.0076734234
  H         0.0127919447        3.3358583805       18.1268259218
  H         0.2502684087        4.1092543768       15.8944492941
  C         3.5714997023        5.1747606934       14.8729999058
  C         4.5861313329        4.6005578585       14.1312869628
  C         4.4979850559        4.4604494127       12.7204493062
  C         3.4766439060        5.0210489536       12.0437191398
  H         3.4258026346        4.8870106627       10.9944403369
  H         5.2926300240        4.0237151013       12.1481625053
  H         5.4046102785        4.1751643822       14.7256645758
  H         3.5766061393        5.0891240227       15.9494341578
  C         1.3249657881        5.8772001658       10.5656422566
  C         0.6820150202        4.6225169373       10.2226156574
  C         0.7656721546        4.0630124595        8.9269170396
  C         1.5723421055        4.6813423991        7.9489787347
  C         2.2718124004        5.8383196907        8.2863664058
  C         2.1424448993        6.4541555437        9.5270242590
  H         2.7471939281        7.3300451767        9.5933231746
  H         3.0707475843        6.1355374204        7.5717336885
  H         1.6633096890        4.2598431283        6.9221915069
  H         0.1875879057        3.1650643723        8.7808416143
  H         0.1257603709        4.1290090145       11.0379351243
