140

  C         4.3344824315       -0.3271930293       14.0686291554
  C         5.3504648118        0.3395490424       14.7979915809
  C         6.4138464925        0.9338139293       14.1244053420
  C         7.4549706405        1.5740418085       14.8415252670
  C         8.5242464242        2.1358254966       14.1825330721
  C         5.2390711464        0.6813109202       16.2312776898
  C         4.4621803418        1.7594604111       16.6316692927
  C         4.2791891893        2.1276827443       17.9559562793
  C         5.0656775811        1.5099420721       18.9013402600
  C         5.9310797884        0.5020325884       18.5467720257
  C         5.9664172809        0.0031548654       17.1934255729
  H         7.5120882896        1.5675316399       15.9563218264
  H         9.3793612027        2.6253246573       14.5780946059
  H         3.8392721773        2.1465938874       15.8721696149
  H         3.5799631149        2.9688887563       18.1236763996
  H         5.0417231343        1.8809644136       19.9034062255
  H         6.6472105893        0.0451241085       19.2907492501
  H         6.7578923388       -0.7101966966       16.8458009096
  C         4.4381002566       -0.4149354557       12.6033338809
  C         3.3320428356       -1.0187679727       11.9164824448
  C         2.1668437060       -1.5171706053       12.6406056005
  C         2.0742652743       -1.3983632468       14.1008451417
  C         3.2273410375       -0.8673673997       14.8024404488
  C         6.4171446277        0.9733920086       12.6783190594
  C         5.4622314257        0.2967225439       11.9195878018
  C         5.3482640620        0.6797015470       10.4543124908
  C         4.3718202954        1.6013257162       10.1205375068
  C         4.2214688396        2.0091504579        8.7918088201
  C         5.0678703870        1.4361472245        7.8342982951
  C         6.1057046699        0.5725522503        8.2047689261
  C         6.2518846914        0.1735097349        9.5160760111
  H         6.9462739560       -0.6264276611        9.7498234049
  H         6.7475981671        0.1934007112        7.4216043579
  H         4.9796874966        1.7322317338        6.7856502731
  H         3.4641037212        2.6677303928        8.4199750568
  H         3.7485017534        2.0129793962       10.8770976352
  C         7.4801766327        1.7011204944       11.9988466039
  C         8.5160852725        2.1889512478       12.7697916374
  H         9.3666928153        2.7437521635       12.3678687226
  H         7.4966522467        2.0652767554       10.9853318731
  C         3.2452107633       -1.3486543568       16.3074289577
  C         3.9933985212       -2.4625861222       16.7402714556
  C         3.9358189366       -2.8852652491       18.0708977059
  C         3.1759835217       -2.1957177092       18.9583802691
  C         2.4154952969       -1.0753062040       18.5807481175
  C         2.3937750734       -0.6706491867       17.2406569695
  H         1.7765944844        0.1213317555       16.8321158613
  H         1.9482806814       -0.4508964975       19.2926962127
  H         3.1693108542       -2.4247850149       19.9896991163
  H         4.4185543041       -3.8591967107       18.2343221175
  H         4.6589139742       -3.0633927256       16.1406873205
  C         0.9117642724       -2.1290705359       14.7168320334
  C        -0.0959732009       -2.6657422259       13.9066825622
  C         0.0341880468       -2.7468654539       12.5231937125
  C         1.1058264844       -2.1485636987       11.8620141823
  H         1.2835133765       -2.2397686927       10.8411607706
  H        -0.7648881591       -3.2406374682       11.9497568554
  H        -0.9227095890       -3.1312521833       14.3451261358
  H         0.6358722204       -2.0715539918       15.8020967717
  C         3.3978048254       -1.4763087515       10.4659352370
  C         4.1048670613       -2.6137405296       10.0310615875
  C         4.0654470601       -3.1301039418        8.7042286927
  C         3.2567167200       -2.5008147948        7.7832355775
  C         2.5435553824       -1.3244732638        8.1847509147
  C         2.5985172431       -0.7862471037        9.5014803767
  H         2.0114104717        0.0576666468        9.8382730760
  H         1.9774065878       -0.8054413375        7.4602074034
  H         3.0850945279       -2.8568277164        6.7655915120
  H         4.5707964523       -4.0998671686        8.4541743058
  H         4.7736896976       -2.9765266201       10.8230869801
  C         0.7007124815        6.7847048172       14.3464426230
  C        -0.2231796555        7.5774856089       15.0695416254
  C        -1.3485879073        8.0698851078       14.3632049851
  C        -2.4141310796        8.7360411515       15.0697244619
  C        -3.5312166250        9.3425684201       14.4382587443
  C        -0.2178647109        7.9081498756       16.5399248025
  C         0.4296574086        9.0188302511       17.0504297254
  C         0.3768120011        9.3918445483       18.4052264055
  C        -0.4285002231        8.6413561072       19.2619403899
  C        -1.1250218919        7.5466456668       18.7669983146
  C        -1.0159921175        7.1396579951       17.4364129267
  H        -2.3092225107        8.6666276615       16.1486539542
  H        -4.3694351165        9.6029493774       15.0845256101
  H         0.8401555021        9.7801770741       16.3839502139
  H         0.9580789882       10.2358324205       18.8050902426
  H        -0.4600512495        8.8461520075       20.3327838785
  H        -1.7154962550        7.0090509840       19.4837086069
  H        -1.5860086544        6.2429011365       16.9986159538
  C         0.7118358767        6.7985428179       12.8518629685
  C         1.7504801283        6.0634170279       12.1606891876
  C         2.8301270879        5.4782110082       12.9468872908
  C         2.8023156482        5.4409546005       14.3509470226
  C         1.6204774219        5.9789955243       15.0124235270
  C        -1.4528459308        7.9881497363       12.9101565283
  C        -0.3935943200        7.4579964138       12.1665685022
  C        -0.3943331641        7.7839629735       10.7105323220
  C         0.4911556646        8.7561567512       10.2772878707
  C         0.6009561771        9.0760193971        8.8896828988
  C        -0.2124996994        8.4364295670        7.9669804591
  C        -1.2006759158        7.5741295143        8.4386190144
  C        -1.2853496239        7.2316654301        9.8033269019
  H        -2.0472066651        6.5253470531       10.1559947531
  H        -2.0444015973        7.2797150675        7.8245971478
  H        -0.1590973173        8.6566991781        6.9219147077
  H         1.2914209680        9.8342620628        8.6636783864
  H         1.2028655343        9.1509002016       11.0542659307
  C        -2.5607943203        8.7243161004       12.2907372342
  C        -3.5987357982        9.2792013283       13.0583518832
  H        -4.3640211931        9.8973714798       12.6347689788
  H        -2.5599841750        8.8628156170       11.1926597483
  C         1.4222346044        5.6528098626       16.4562512527
  C         0.6993519171        4.5193420154       16.7947190739
  C         0.7009917136        4.1050033441       18.1702595137
  C         1.5206963316        4.7985292426       19.1114184064
  C         2.2889433754        5.8886761844       18.7300810758
  C         2.2116464091        6.3402129268       17.4018816088
  H         2.5991100909        7.3040590317       17.0817108053
  H         2.9594578443        6.3997876850       19.4412640300
  H         1.5098470032        4.4805008622       20.1632888759
  H         0.2213540295        3.2128229497       18.5010803553
  H         0.1490857952        4.0753852608       15.9105482935
  C         3.8290199633        4.7099341074       15.0806148826
  C         4.8010024074        4.0255275985       14.3582784605
  C         4.9219911618        4.1753152750       12.9466849451
  C         3.8935506246        4.8319067821       12.2719604775
  H         3.8872426935        4.6936213303       11.1838334626
  H         5.6836851500        3.6014020662       12.4753666641
  H         5.5152067189        3.3536142909       14.8458744601
  H         3.6694539269        4.5849542477       16.1586223801
  C         1.6980695496        5.6045835912       10.8026965791
  C         0.7615953167        4.6772756584       10.2721902009
  C         0.8800018786        4.2365137406        8.9285771100
  C         1.8330215837        4.8100635890        8.0860476742
  C         2.6866930327        5.7869425612        8.5789391813
  C         2.6705138131        6.0912773852        9.9168092035
  H         3.4022197664        6.8015364099       10.2743116491
  H         3.4866267677        6.2308220223        7.9735359544
  H         1.8945728610        4.5292117625        7.0536195607
  H         0.2024896606        3.5558169846        8.4747401851
  H         0.0316398696        4.2295773526       10.9191176779
