140

  C        15.8439604684       -1.3177455268        0.3517534798
  C        16.7933877998       -0.4087726938        0.9128540091
  C        17.7345391227        0.2223075701        0.1426403203
  C        18.6185330221        1.2023128430        0.6699416691
  C        19.7065122790        1.7285268287        0.0174783436
  C        16.6762617482        0.0299986550        2.3737250675
  C        15.6764007699        0.8089293401        2.8848140025
  C        15.7323609732        1.1811221124        4.2351993236
  C        16.8016152388        0.9326269470        5.0548578622
  C        17.8305981017        0.1094494317        4.5479242519
  C        17.7638983611       -0.3310577736        3.2678207175
  H        18.3962782822        1.5549891846        1.6899048544
  H        20.4046253635        2.3832209380        0.5066527644
  H        14.8190589471        1.0432027337        2.2576076786
  H        14.9563808848        1.7872052803        4.6599880200
  H        16.8282393446        1.3660504530        6.0759162706
  H        18.5930605049       -0.2525822967        5.1795064387
  H        18.5559106708       -0.9522595538        2.8485053410
  C        15.7128599599       -1.3972858452       -1.0766019072
  C        14.6579996540       -2.1078959320       -1.7179154775
  C        13.6665694465       -2.7406868726       -0.9569980668
  C        13.7865862184       -2.6882733787        0.5019424287
  C        14.9019542326       -2.0181587926        1.1432845661
  C        17.8020426475        0.0185123866       -1.2861862108
  C        16.7090551368       -0.6593051377       -1.8484350475
  C        16.6524161369       -0.4803295564       -3.3307604089
  C        16.0161194535        0.6249080653       -3.8720374246
  C        16.0224707913        0.9078971271       -5.2297913993
  C        16.7318393455        0.0783038156       -6.0892735303
  C        17.5641669736       -0.9022949542       -5.5499916929
  C        17.4385427951       -1.2150587099       -4.1802078749
  H        17.9990116374       -2.0072613403       -3.6903994957
  H        18.2267249023       -1.5515182088       -6.1503284166
  H        16.6724752091        0.3381102117       -7.1234443324
  H        15.3879647878        1.7041139389       -5.6450636032
  H        15.4472177346        1.3129578582       -3.2295627193
  C        18.8867137254        0.5949700502       -1.9482221036
  C        19.8935093498        1.3780116907       -1.3573712449
  H        20.7221346056        1.7488201455       -1.9086989841
  H        19.1294621538        0.4637298073       -3.0556113245
  C        15.0665166951       -2.2220083714        2.6690271435
  C        16.0108983002       -3.1524380762        3.1526029710
  C        15.9673848018       -3.6586760264        4.4481354685
  C        15.0074857470       -3.2623752040        5.3076906511
  C        14.0432481407       -2.3669561861        4.8441708024
  C        14.0641466416       -1.8276504903        3.5390218729
  H        13.3868526713       -1.0815828415        3.1296382235
  H        13.2108483378       -2.0779853546        5.5378926255
  H        14.8527444193       -3.6271132693        6.3457187127
  H        16.8701835323       -4.1102247859        4.8648657309
  H        16.8818836563       -3.5697127692        2.4786153094
  C        12.8845959960       -3.4556535332        1.2921793931
  C        11.8230981586       -4.0373022613        0.6656564119
  C        11.6260607693       -4.0830094709       -0.7746854983
  C        12.5941077633       -3.4202304604       -1.5429539468
  H        12.6200519264       -3.5462542033       -2.6177506961
  H        10.8328333089       -4.6191967507       -1.1962739128
  H        11.0373361597       -4.4390758691        1.2984215365
  H        13.0178199851       -3.5446601479        2.3269996790
  C        14.7259218079       -2.4351938753       -3.1886609495
  C        15.4537287864       -3.6147588856       -3.5077860089
  C        15.6343010078       -4.1216972904       -4.7901618342
  C        15.0112095409       -3.4176129291       -5.9033443418
  C        14.1330825968       -2.3402162053       -5.5411537147
  C        13.9426594262       -1.9092161637       -4.2244576959
  H        13.2825337382       -1.0465061359       -3.9410914451
  H        13.5448353979       -1.7566520177       -6.2651833288
  H        15.1835479385       -3.6815161203       -6.9469747045
  H        16.3916283151       -4.9670274734       -4.9274320092
  H        16.0549929106       -3.9817932478       -2.6487769432
  C        12.1932471703        5.8667272218        0.2465832465
  C        11.1267548071        6.4554945010        0.9631367235
  C        10.1390937261        7.1762863051        0.2694725572
  C         9.0103035187        7.8857250230        0.8778507713
  C         8.0706617063        8.5971366743        0.1759920318
  C        11.1712088809        6.7963020814        2.4299827445
  C        11.8394803076        7.9618083347        2.8404876392
  C        11.7912167945        8.3368300293        4.1946191405
  C        11.0345952347        7.6459616177        5.0764080484
  C        10.2613588386        6.5903931121        4.6135810037
  C        10.4042706056        6.1306331521        3.3498290904
  H         8.9415694803        7.9727653408        1.9681206067
  H         7.3673672658        9.1918431464        0.7615583053
  H        12.4096535607        8.5508026774        2.0198552786
  H        12.3740925673        9.2038362950        4.6092045827
  H        10.8764470163        8.1027696599        6.0842991780
  H         9.6338695056        6.0413483528        5.3310127421
  H         9.8144912354        5.2054354828        3.0851844913
  C        12.1721494705        5.9089296837       -1.2509149975
  C        13.1288723852        5.0978783852       -1.9866702177
  C        14.2046784605        4.5264783701       -1.3244729817
  C        14.3327600705        4.6224269055        0.0824704484
  C        13.3059354475        5.1427423509        0.8606156898
  C        10.0826941970        7.1407296772       -1.2083062513
  C        11.1806030727        6.6502974970       -1.9150067229
  C        11.2546852887        7.0312235781       -3.3948876569
  C        11.9633458250        8.1984511413       -3.7171760693
  C        12.0455676643        8.6559273329       -5.0111508678
  C        11.2914137058        7.9683367640       -6.0095951653
  C        10.5771130943        6.8292966886       -5.6197242473
  C        10.5413892322        6.2846958409       -4.3625443422
  H         9.8138099619        5.4865162770       -4.1010836846
  H        10.0451153271        6.4027341427       -6.4954622054
  H        11.1837298587        8.3529178845       -6.9642683757
  H        12.5681437783        9.5798724780       -5.2921972054
  H        12.3910632711        8.7989638490       -2.8466820077
  C         8.9688488775        7.6900969992       -1.9312476953
  C         7.9035710123        8.3954112374       -1.2597171263
  H         7.1745193953        9.0674934888       -1.7809345260
  H         8.9404097332        7.6096821642       -3.0132495182
  C        13.1696979848        4.6390650458        2.2761596552
  C        12.2801981276        3.5756460146        2.4252791959
  C        12.0508782661        3.0632474417        3.7014381381
  C        12.7765039254        3.6094895091        4.8149165001
  C        13.6161124909        4.7043773391        4.6419603462
  C        13.7395146640        5.2370896705        3.3872613245
  H        14.1679448960        6.2051450088        3.1815434855
  H        14.0952593639        5.2383222987        5.4719046946
  H        12.5953231062        3.2341413727        5.8344625572
  H        11.2647274123        2.2994417305        3.9344890342
  H        11.7858481448        3.2562806171        1.5097687901
  C        15.5010312912        4.0125645694        0.7509647427
  C        16.4106301377        3.2828464812        0.0260595080
  C        16.2449984098        3.0829296217       -1.3678830025
  C        15.2161702569        3.6563901449       -2.0014638864
  H        15.0551374889        3.5120040547       -3.0924806004
  H        17.0122666088        2.4667048673       -1.8665353051
  H        17.2404554487        2.8671070260        0.6246860863
  H        15.6527755411        4.1330153228        1.8390702118
  C        13.0156363172        4.6673021203       -3.3998131548
  C        12.4538214168        3.4502810602       -3.7481269708
  C        12.6846730239        2.9246204632       -5.0778598017
  C        13.5398700525        3.5888496005       -5.9390751323
  C        14.0661272100        4.8306959679       -5.6349053650
  C        13.8357969261        5.3849178328       -4.3490261704
  H        14.1193559573        6.4186404473       -4.1187084998
  H        14.6943353460        5.3545335803       -6.2838576763
  H        13.6346702957        3.2922418745       -6.9414867116
  H        12.3409425698        1.9316614777       -5.4077562666
  H        11.9547830859        2.9304234103       -3.0203291011
