140

  C        15.9789419181       -0.1076638538        2.6380216126
  C        16.9664328353        0.6231103059        3.3562720296
  C        18.0999273825        1.1937784491        2.6769606174
  C        19.2456761844        1.8316537178        3.2964365006
  C        20.3488277740        2.3094869101        2.6174001138
  C        16.8558418318        0.8860558298        4.7802286728
  C        15.8316295131        1.7776104173        5.2738926130
  C        15.8236772474        2.2346636746        6.6010621152
  C        16.7895055480        1.8317344548        7.4951627500
  C        17.7741748141        0.8996394761        7.0473708754
  C        17.7888961935        0.4174933221        5.7157721890
  H        19.1137787116        2.0900249230        4.3288343056
  H        21.1711642543        2.8935433765        3.0492506543
  H        15.0445765245        2.1558380795        4.6189747012
  H        15.1277775680        3.0286369279        6.8444287607
  H        16.8587674584        2.2503472643        8.5156803948
  H        18.5904068640        0.4354864441        7.6817628570
  H        18.6034173483       -0.2572372404        5.3357117615
  C        15.8979545051       -0.1229854251        1.1064753502
  C        14.8871303945       -0.7508078473        0.4165947802
  C        13.7937789313       -1.2835574860        1.1691892319
  C        13.8830422876       -1.3839311078        2.6110594961
  C        15.0096208989       -0.9306777367        3.3246565914
  C        18.1662368399        1.0546190289        1.2249943449
  C        17.0431562464        0.5357182680        0.5031393903
  C        17.0326278506        0.9864779953       -0.9493462668
  C        16.4412341959        2.1768691954       -1.4166580700
  C        16.5556949311        2.6834222094       -2.7534416328
  C        17.4089821340        2.0269955821       -3.6524499761
  C        18.0659952306        0.8138185901       -3.2126968927
  C        17.8287864017        0.2904966697       -1.9450654686
  H        18.3281828014       -0.6483934191       -1.6107179413
  H        18.7981624620        0.1887365011       -3.7359437004
  H        17.7522296381        2.3677505568       -4.6224411577
  H        15.9284207668        3.4810874703       -3.0965448580
  H        15.7144752955        2.7370647136       -0.8023880553
  C        19.3399142234        1.5043696612        0.5638592387
  C        20.3873463281        2.0708348311        1.2490350379
  H        21.2500912444        2.3699527142        0.7262260879
  H        19.4719476500        1.4043876550       -0.5667618496
  C        15.1425912217       -1.3947652859        4.7439976893
  C        15.9822142671       -2.4723775134        4.9570523818
  C        16.1185145505       -3.0700295495        6.2417084038
  C        15.4148289695       -2.5307584617        7.3213240414
  C        14.5588557061       -1.4605278098        7.1235230018
  C        14.4312076727       -0.9040166125        5.8510327434
  H        13.6635862773       -0.0968593550        5.7137876777
  H        13.9359754590       -1.0188808832        7.9489417549
  H        15.6318749104       -2.8880862673        8.2677857581
  H        16.6310225338       -4.0161760356        6.3872232532
  H        16.4480763636       -2.9926762947        4.1196575357
  C        12.8917100988       -2.1925558452        3.2804168577
  C        11.8726526742       -2.7663022690        2.5998263260
  C        11.6049566416       -2.3691317597        1.2563537460
  C        12.5620566313       -1.6650680945        0.6005870318
  H        12.3777599897       -1.4333619766       -0.4494161689
  H        10.6981670673       -2.7605478203        0.9180272324
  H        11.1744951369       -3.4436204692        3.1412994018
  H        13.0099928785       -2.4676918561        4.2956403468
  C        15.0743848970       -1.1110725745       -1.0720228728
  C        16.0338507962       -2.1495222997       -1.3226547243
  C        16.0733491562       -2.8256945772       -2.5888992475
  C        15.1480021950       -2.3564221966       -3.5741857311
  C        14.3896795130       -1.1996827373       -3.4148704915
  C        14.2897830355       -0.6743407155       -2.0999946494
  H        13.6104119745        0.1688012653       -1.9066547792
  H        13.7635046175       -0.8589732699       -4.2453181829
  H        15.1490173564       -2.8345787230       -4.5687141030
  H        16.6650688037       -3.6772183775       -2.8363734750
  H        16.6846462247       -2.3232690425       -0.4758200526
  C        12.3101051122        6.9004871522        2.8864880914
  C        11.3215982241        7.6938584186        3.5621734707
  C        10.3590145866        8.4037585970        2.8906344074
  C         9.4283240780        9.2141442377        3.6897610710
  C         8.4432975984        9.8416409554        2.9742233161
  C        11.5830944390        8.0617518130        4.9423859680
  C        12.3447769832        9.1751452151        5.2167586043
  C        12.5033191438        9.7388568411        6.5174126308
  C        11.8323675393        9.1795999864        7.5764570334
  C        11.0992023265        8.0265841899        7.3644060544
  C        10.9000847073        7.4864809197        6.0980138416
  H         9.6112478908        9.3891976621        4.7502240255
  H         7.8057588343       10.5372447148        3.5507167638
  H        12.7738177585        9.8409886787        4.4280046607
  H        13.1950580426       10.5694828005        6.7440133736
  H        11.9268898974        9.6146963869        8.5947397036
  H        10.6537592457        7.4829702746        8.1579028438
  H        10.1899269762        6.6297272185        6.0039150358
  C        12.2424317830        6.9046082974        1.3918827524
  C        13.3771078481        6.2891090067        0.7277417785
  C        14.5333998749        5.7750946660        1.4751424447
  C        14.4560525412        5.6705627221        2.9520365322
  C        13.3167140499        6.1656836670        3.6370622128
  C        10.2379147548        8.3819042704        1.4512760265
  C        11.2699410809        7.6837292684        0.7009332933
  C        11.3599961830        8.1368946265       -0.7964451770
  C        12.3401313502        9.0836700772       -1.2162039601
  C        12.3082046521        9.7004726551       -2.4724639270
  C        11.2549807852        9.2496989511       -3.4040430859
  C        10.3127746511        8.2516839011       -3.0208291137
  C        10.3918506929        7.7244918415       -1.6997699134
  H         9.6326514864        6.9889083416       -1.4608300017
  H         9.6016544572        8.0098803674       -3.7408211633
  H        11.3334090766        9.4284374958       -4.4819367529
  H        13.0586968436       10.4731629939       -2.6748552828
  H        13.0815031228        9.3499997524       -0.4770132757
  C         9.1830370716        9.1593728497        0.8193965960
  C         8.2465072070        9.7478871349        1.5665012517
  H         7.4325571769       10.2537251112        1.0180011395
  H         9.0379514557        9.0739789443       -0.2218216034
  C        13.3270098400        5.8570790289        5.1468904549
  C        12.6592763217        4.7064178288        5.6779310136
  C        12.7664010700        4.2445961272        6.9949656337
  C        13.5995120375        4.9564366381        7.8734386926
  C        14.2391118151        6.1116889454        7.4060859812
  C        14.0753367170        6.5944720617        6.0770156268
  H        14.5410870552        7.5304734965        5.8438664040
  H        14.9285749409        6.6539563719        8.0007755216
  H        13.8051795513        4.5760733225        8.8527910508
  H        12.1998601434        3.4044137604        7.3434841810
  H        12.0329158675        4.1572421809        4.9599507687
  C        15.5546803532        5.0237215221        3.6251638888
  C        16.6017299063        4.5416049961        2.9600150157
  C        16.6984254294        4.6438934555        1.5173360159
  C        15.6746215851        5.1488006337        0.7857130340
  H        15.7389412550        5.0422494586       -0.3076230852
  H        17.4986981721        4.1425815285        0.9350399921
  H        17.3955137581        4.0324183920        3.4923297026
  H        15.4698834611        4.9579894225        4.6862162944
  C        13.3420006020        5.9590867085       -0.7652341252
  C        12.4654029821        5.0055047377       -1.3303665806
  C        12.6451646851        4.5809518324       -2.6345111919
  C        13.5967626189        5.2134350153       -3.4654653027
  C        14.4325327655        6.2378277245       -2.9586831610
  C        14.2889388805        6.5323964855       -1.6176732801
  H        15.0274779574        7.2412876831       -1.1440518727
  H        15.1063983305        6.7456167839       -3.5901870477
  H        13.7915986547        4.7969213417       -4.4212694830
  H        11.9480682672        3.8165360171       -3.0096758607
  H        11.6354399086        4.4905526274       -0.8622511557
