140

  C        15.0821208193       -0.4645870710        0.4180745096
  C        16.1649468633        0.0911161954        1.2586536465
  C        17.3579930067        0.5635792081        0.6254032542
  C        18.4598656807        1.1783084685        1.4021761385
  C        19.3856294747        1.9338818756        0.7388671174
  C        16.0511798815        0.4433816154        2.7258078682
  C        15.2069722882        1.3969689212        3.3438019037
  C        15.2944882724        1.7074477845        4.6711668699
  C        16.2603405742        1.2132248055        5.5630033904
  C        17.1035871494        0.2551418582        4.9249518707
  C        16.9716129170       -0.1409239956        3.6069010595
  H        18.4386361338        1.2610948733        2.4808256651
  H        20.2000280302        2.4461650581        1.2814474738
  H        14.4212397830        1.8997575433        2.7447664453
  H        14.6021172223        2.4902031488        5.0493856946
  H        16.3987498282        1.4506861977        6.6384614393
  H        17.7608531125       -0.2501331931        5.6190723119
  H        17.5000552826       -1.0185345641        3.2759342975
  C        15.1973179879       -0.3897005077       -0.9887408252
  C        14.1446275752       -0.9849979424       -1.7299042409
  C        13.1004776738       -1.6494159913       -1.0799650555
  C        13.0367553190       -1.7230819434        0.3605134668
  C        14.0630974347       -1.1710463189        1.1168232216
  C        17.4514269954        0.6590566658       -0.8415226638
  C        16.3219096591        0.2706212403       -1.5644755751
  C        16.3432594690        0.6652356052       -3.0938067508
  C        15.4725126680        1.6635733918       -3.5375115057
  C        15.4165176429        2.1670143618       -4.8328279480
  C        16.2832945196        1.5815608309       -5.7681921738
  C        17.2061957807        0.5982113239       -5.3789535812
  C        17.2509921525        0.1756594089       -4.0571749702
  H        17.9614142930       -0.6164158942       -3.8336691957
  H        17.8483379693        0.1352882349       -6.1716058287
  H        16.1664489785        1.8726981178       -6.8477969321
  H        14.7028232032        2.9669531208       -5.0759406235
  H        14.7588294233        2.0532382284       -2.8104133883
  C        18.6330506760        1.1839845034       -1.4805840517
  C        19.5668380730        1.8602974461       -0.6966114998
  H        20.4286099638        2.3222343165       -1.2022750455
  H        18.7489140520        1.2061720500       -2.5807388948
  C        14.3019754977       -1.5256525920        2.5686478679
  C        15.2385641684       -2.5314689847        2.7829364533
  C        15.4883042843       -3.0977203677        4.0457932841
  C        14.6127614033       -2.7878550487        5.0624174269
  C        13.6200941128       -1.8057630672        4.8636084411
  C        13.4670641302       -1.1657273026        3.6438483612
  H        12.6247828883       -0.5528461550        3.4371962287
  H        12.8645197631       -1.7332523802        5.6531201585
  H        14.7135114446       -3.2094904379        6.0889013371
  H        16.1989155380       -3.9162677483        4.1765424248
  H        15.9577872894       -2.8244561553        2.0637277867
  C        11.9274448046       -2.4110399726        0.9764876923
  C        11.0695053918       -3.1368101709        0.1783734188
  C        11.2310176900       -3.2000228084       -1.2162311607
  C        12.2109441576       -2.5007326018       -1.8742461134
  H        12.4348928063       -2.5979889044       -2.9361928652
  H        10.5463024668       -3.9441815994       -1.7568037261
  H        10.2718956943       -3.7047706007        0.5758167786
  H        11.7040655200       -2.2789004669        2.0170127381
  C        14.3172888298       -1.2895809622       -3.1591597374
  C        15.1584031645       -2.3354734886       -3.6809650669
  C        15.1059318796       -2.5372463537       -5.0475716191
  C        14.2261443562       -1.7193778859       -5.9231121101
  C        13.3981839276       -0.8030533573       -5.3039411798
  C        13.4645588719       -0.6276069692       -3.9575101168
  H        12.7457988081        0.0700596169       -3.5594515114
  H        12.6841696246       -0.2205241555       -5.9000834821
  H        14.1886167420       -1.7957282990       -6.9987398437
  H        15.7264366083       -3.3501644767       -5.4597498557
  H        15.8959369848       -2.8128278140       -3.0493616297
  C        11.5654531013        6.1526479316        0.4245941302
  C        10.5318746629        6.8403126327        1.1416248774
  C         9.4267568729        7.3459604492        0.4712466007
  C         8.2759504758        7.9365052820        1.0758672258
  C         7.2911558682        8.5542523813        0.3189721247
  C        10.6158896181        7.3720137889        2.5310665487
  C        11.3684714020        8.5872911880        2.8509313865
  C        11.4129415981        9.0152483657        4.1699818296
  C        10.7102283132        8.4378588535        5.2169067605
  C         9.9905752446        7.2769643590        4.9548824425
  C         9.9914582939        6.7495727750        3.6291341296
  H         8.2119312131        7.9762269737        2.1735656925
  H         6.4020278174        8.8482125368        0.8315574593
  H        11.9218349851        9.0370796701        2.0792056900
  H        11.9926006944        9.8609467382        4.3214004976
  H        10.9058064037        8.8400465538        6.2034460946
  H         9.4788763044        6.6057725564        5.6944234890
  H         9.3593187628        5.8133883052        3.5317361639
  C        11.6108676993        6.1995202824       -1.0097249446
  C        12.5451994484        5.4389006967       -1.7519239791
  C        13.6675227638        4.9262783000       -1.0685515413
  C        13.7775364432        5.0119492813        0.3977201558
  C        12.6443947820        5.5260815262        1.0894062477
  C         9.5146194967        7.4192023531       -0.9999445815
  C        10.6317702293        6.9467151622       -1.7195386529
  C        10.8500901628        7.4893516904       -3.1067563846
  C        11.8653850849        8.5717661211       -3.2912362357
  C        11.9445687787        9.1392324282       -4.5882416718
  C        11.1800674238        8.6740105987       -5.6554472107
  C        10.2162766422        7.6580518093       -5.5142458903
  C        10.1790260560        6.9802624508       -4.2360625601
  H         9.5617384278        6.1033145191       -4.1580264414
  H         9.6324100074        7.4325026021       -6.4163322017
  H        11.2348825484        9.1456327681       -6.6919452123
  H        12.6308426336        9.9800503339       -4.5765999251
  H        12.3320984922        8.9864377138       -2.4093800593
  C         8.4656189035        8.0900877170       -1.7008893262
  C         7.3958681215        8.6451330538       -1.0651572935
  H         6.5620357941        9.0628417793       -1.6479239631
  H         8.4892305038        8.0459560129       -2.8043786522
  C        12.5140259768        5.1988655414        2.5832956398
  C        11.7757372058        4.0353909722        2.9627916162
  C        11.6986424116        3.6723645449        4.3454020932
  C        12.3890420483        4.4226562471        5.2674983242
  C        13.0684960581        5.6045361546        4.8924825418
  C        13.2331112863        5.9417467439        3.5537121138
  H        13.7592928748        6.8305843408        3.1739813341
  H        13.5581649623        6.2760513237        5.5975683620
  H        12.3194961243        4.1949466378        6.2974732700
  H        11.1170737458        2.7553263755        4.6021730907
  H        11.1521053579        3.5438295165        2.2423866940
  C        14.9451428364        4.4292540857        1.1163531343
  C        15.9606079153        3.8823158135        0.3955747421
  C        15.9377967502        3.9199801107       -1.0088165837
  C        14.8122429355        4.2455214978       -1.6799174782
  H        14.7924291461        4.2645594997       -2.7116692193
  H        16.8142101824        3.4720889512       -1.5302712477
  H        16.8488609375        3.5054446312        0.9311131197
  H        14.9715479375        4.4860538788        2.1946987767
  C        12.3655038274        5.1721988731       -3.2660500455
  C        11.4405642772        4.1860718995       -3.6643826302
  C        11.3371703336        3.7430222703       -5.0174750281
  C        12.2464133170        4.3220537309       -5.9521512552
  C        13.0953287155        5.3103077232       -5.6039872282
  C        13.2342370246        5.6927449674       -4.2356365185
  H        14.0250541540        6.4567841807       -3.7924274726
  H        13.8207586943        5.7386891975       -6.2569139793
  H        12.1837797502        4.0283841836       -7.0215133873
  H        10.5839789468        2.9525514091       -5.3513258893
  H        10.6411014259        3.9294711229       -2.9909078251
