140

  C        15.9042342861       -0.0635822037        2.3780275096
  C        16.8281024948        0.7534297355        3.0208724032
  C        17.7910386135        1.4228973035        2.2624877284
  C        18.9048343842        2.0086755203        2.9633365244
  C        19.9693266188        2.6532977620        2.2805041540
  C        16.7158428432        1.1769406146        4.4726832831
  C        15.8815980801        2.2415282145        4.8167394232
  C        15.6537610347        2.5710259243        6.2175983284
  C        16.3429705051        1.8806689800        7.2622846334
  C        17.3030291094        0.9476716969        6.8375531957
  C        17.5312855254        0.6253092274        5.5001972325
  H        18.9657943810        1.8744033436        4.0496724501
  H        20.7660314043        3.1718913714        2.8245945424
  H        15.2595139541        2.8081199675        4.0979210031
  H        14.9546619610        3.3497814921        6.4887656131
  H        16.1285292229        2.1418413666        8.2827952911
  H        17.9215065843        0.4251282070        7.5993221891
  H        18.2470475003       -0.2213442346        5.2695135106
  C        15.7960857704        0.0404066294        0.8717786137
  C        14.7140535199       -0.6505985333        0.1925061387
  C        13.6644576010       -1.2707608021        0.9846139462
  C        13.7961520277       -1.3768610717        2.4070717007
  C        14.9074853960       -0.7591248354        3.0881276637
  C        17.7712721935        1.5546406717        0.8406084089
  C        16.6974060706        0.8786815076        0.1638332715
  C        16.4752927927        1.2323267111       -1.3038010490
  C        15.4444655302        2.2036705299       -1.5801365789
  C        15.2592556103        2.6277847276       -2.9223701520
  C        16.1655727886        2.2837726443       -3.9303293806
  C        17.2455440456        1.3854170838       -3.5704862787
  C        17.3622132851        0.8334598280       -2.2886045532
  H        18.0331262968        0.0183222706       -2.0256632067
  H        17.9196764886        1.0797778347       -4.3415650690
  H        16.1185368381        2.6254806611       -4.9263477833
  H        14.4634605534        3.2863304333       -3.2913127611
  H        14.7895833034        2.6133664880       -0.7845486990
  C        18.8648014377        2.1999198877        0.1464833275
  C        19.9497185204        2.6672758253        0.8338644742
  H        20.7699199051        3.1578444864        0.3510220726
  H        18.7798505908        2.4221570832       -0.8774200299
  C        14.8641848333       -1.0594122979        4.5979029586
  C        15.6547741100       -2.1234077731        4.9659107375
  C        15.6439273473       -2.6613900297        6.2478268608
  C        14.7521961326       -2.0853723645        7.2359074334
  C        13.9665339137       -1.0494532069        6.8451955760
  C        13.9903919208       -0.5188475584        5.5427379989
  H        13.4177121428        0.3836333860        5.3690151946
  H        13.1973631260       -0.6313530781        7.5955719283
  H        14.5822229522       -2.6743129902        8.1711314984
  H        16.2707874920       -3.5449942771        6.4622775060
  H        16.3203290628       -2.4908615124        4.3062464701
  C        12.6747104923       -1.9233151010        3.1493099829
  C        11.5883564375       -2.4619117973        2.5408643651
  C        11.4916729690       -2.4735407768        1.1160525457
  C        12.4999548024       -1.9245396767        0.3351778360
  H        12.4133559159       -1.9257970016       -0.7251949260
  H        10.8230128109       -3.2119664488        0.6759805230
  H        10.8118834513       -2.9787115948        3.0944344921
  H        12.8457793936       -1.9481302914        4.2065271979
  C        14.7185591931       -1.1309342815       -1.2511571442
  C        15.7312766300       -1.9895114920       -1.7030758157
  C        15.8485134376       -2.4085491122       -2.9980178415
  C        14.9813831773       -1.8689461258       -3.9449193921
  C        13.9442055052       -1.0662527863       -3.5994693224
  C        13.8067604451       -0.6369381252       -2.2330323887
  H        12.9806261073        0.0276896408       -1.9231584106
  H        13.2568906779       -0.6330020665       -4.3303587304
  H        15.1007585122       -2.0612590565       -4.9778728022
  H        16.6877188066       -3.0939593145       -3.2561164144
  H        16.5031645380       -2.3906023437       -0.9549907466
  C        12.2354344363        7.1327273970        2.3071068432
  C        11.1968073696        7.8275152371        3.0348548151
  C        10.0999209854        8.4854654205        2.3416707931
  C         8.9769302604        9.0506230192        2.9878128975
  C         7.9325920954        9.7129893173        2.3275549100
  C        11.2508843365        8.2117587125        4.5822407476
  C        12.0332157077        9.3935188850        4.8036964626
  C        12.1207347144        9.9688656248        6.0971961637
  C        11.4369963085        9.3458162108        7.1376081982
  C        10.4927653435        8.2963635829        6.9157154988
  C        10.5252411378        7.6921229390        5.6089286195
  H         8.9260756381        9.0396989185        4.0920254176
  H         7.1598557385       10.2277978113        2.9044964644
  H        12.5205874710        9.8138356212        3.9576005113
  H        12.6735728195       10.8298599593        6.3800053862
  H        11.4611883940        9.7752946613        8.1389685574
  H         9.8094607005        7.9121518953        7.6743226291
  H         9.9237230001        6.8272084210        5.5387829050
  C        12.1864174598        7.1508070652        0.8448152422
  C        13.1522610719        6.3512432016        0.1601405588
  C        14.1912601187        5.7486990392        0.8953695788
  C        14.2844867894        5.8437060760        2.3281248454
  C        13.2482510069        6.4974705916        3.0530856884
  C        10.2057526801        8.6066860538        0.8906548824
  C        11.2005795766        7.9043890375        0.2241707309
  C        11.3030636764        8.3599907634       -1.2669242765
  C        12.0709396087        9.5347126674       -1.5681367605
  C        11.9879631466       10.1802927048       -2.8161482597
  C        11.2472032792        9.6893351815       -3.8848304404
  C        10.5002904898        8.5463495285       -3.5715112128
  C        10.5941537962        7.8104629955       -2.3560148832
  H        10.0693349424        6.8402199179       -2.2190283146
  H         9.8522133923        8.1793180869       -4.3815145055
  H        10.9904127179       10.1797937524       -4.7778864177
  H        12.6078556618       11.0605092498       -2.8247518911
  H        12.9248246492        9.8192295583       -0.9094295798
  C         9.1835508525        9.3538486901        0.2690134443
  C         8.0823024109        9.8809809816        0.9487620562
  H         7.3760238849       10.4148090356        0.2708952475
  H         9.2075644967        9.5386916749       -0.8017109547
  C        13.2475938422        6.1632111223        4.5310041369
  C        12.6451566793        4.9946301901        4.9230644219
  C        12.3173161338        4.5769805190        6.2072687859
  C        12.8061088573        5.3730386205        7.2546147980
  C        13.5723598708        6.5138283485        6.9054225399
  C        13.7928866275        6.8423100246        5.5998848242
  H        14.5508741251        7.6423250895        5.3583977012
  H        14.0391013238        7.1013034780        7.7225232240
  H        12.6884540045        5.0028547783        8.2755407557
  H        11.7448539872        3.6783842341        6.4066963742
  H        12.2090830933        4.4317066115        4.0959883872
  C        15.4425376549        5.2974245482        3.0205901848
  C        16.4786145454        4.7918723068        2.2506603405
  C        16.4141697449        4.6724884332        0.8086427237
  C        15.2357031319        5.0409638055        0.2071913604
  H        15.0710290518        4.7087866533       -0.8188826967
  H        17.2273359256        4.2259083238        0.2676500287
  H        17.3910654928        4.3556308009        2.6965839304
  H        15.5060957721        5.2309136642        4.1120506204
  C        13.0637611310        6.0649818376       -1.3022246689
  C        12.3125500962        4.9541260928       -1.7173768531
  C        12.2488252130        4.5686932451       -3.0940579071
  C        12.8952440433        5.2679242187       -4.0461371594
  C        13.6351954891        6.3724777010       -3.7172998701
  C        13.7599684582        6.7250144730       -2.3154950226
  H        14.5185476510        7.5145681378       -1.9888496783
  H        14.3252820906        6.8131799343       -4.4094067538
  H        12.8475241939        4.9981743450       -5.0827428228
  H        11.6331684605        3.7346712795       -3.3357086657
  H        11.8820035605        4.3906119301       -0.9110458830
