140

  C        15.1962179771        0.1264977537        2.1492200764
  C        16.3846007816        0.7478043419        2.7036169596
  C        17.5235551142        1.1201352811        1.9001669803
  C        18.7013295911        1.6014368780        2.5400132641
  C        19.7250867566        2.1796011073        1.8677032752
  C        16.5446171239        1.0783322115        4.2222507842
  C        15.8341373233        2.2586349308        4.6021413738
  C        15.7447936453        2.6625949748        5.9517084109
  C        16.4321317482        1.8726616203        6.8897611615
  C        17.2310088026        0.7891800674        6.5874685844
  C        17.1975057564        0.3690553831        5.2427935974
  H        18.7402913311        1.5715430772        3.6172576146
  H        20.5112776274        2.6758909003        2.4353990501
  H        15.4124304098        2.6856714065        3.6605441784
  H        15.1532545522        3.5412231358        6.1659824348
  H        16.3732232224        2.1633168237        7.9236341143
  H        17.6431738368        0.0573368899        7.3764166176
  H        17.6885451061       -0.5755644275        5.0254561142
  C        15.1612952045        0.0565429613        0.6676241602
  C        14.1760905251       -0.7452598837        0.0457493080
  C        13.0673423382       -1.2374116090        0.7863068688
  C        13.1410480585       -1.1248601632        2.2139378400
  C        14.2565737575       -0.5500628199        2.9006935385
  C        17.4358381072        1.1060524735        0.4815413903
  C        16.2273360970        0.6492165003       -0.1123538342
  C        16.0420556040        1.1786785410       -1.5034874159
  C        15.1124668780        2.2025312927       -1.7139117312
  C        15.0149825845        2.8709669430       -2.9614408432
  C        15.8842714616        2.5234399183       -4.0047176634
  C        16.8331977580        1.4871525674       -3.8043848447
  C        16.8020334452        0.7929058315       -2.6017332115
  H        17.4928121493       -0.0128480197       -2.4572927598
  H        17.5398123112        1.3052532065       -4.6161061006
  H        15.7283835520        3.0150804577       -4.9503088754
  H        14.4490435678        3.8201500485       -2.9792977581
  H        14.4710179664        2.5544718315       -0.9347245631
  C        18.5199705517        1.7799864431       -0.2231674877
  C        19.5974301562        2.4164448732        0.5057875531
  H        20.1692315283        3.0091494413       -0.1215379517
  H        18.5019657652        1.9813623243       -1.2517674635
  C        14.3440892315       -0.9085653342        4.3531013561
  C        14.9853210893       -2.0674608757        4.8504150506
  C        14.8018894585       -2.6047779688        6.1495887799
  C        13.9983693591       -1.8857887551        7.1316599213
  C        13.4726329158       -0.6666730807        6.6779487921
  C        13.6050209309       -0.2092840657        5.3295963894
  H        13.3702354097        0.7124739196        4.9498909771
  H        12.9364762044       -0.0228482011        7.2912462971
  H        13.8492872727       -2.2493564925        8.0900441466
  H        15.2084180779       -3.6427789351        6.3747471075
  H        15.4980315008       -2.5853350847        4.0702466294
  C        12.1109408913       -1.8517487479        2.9832668379
  C        11.0875045413       -2.4691736703        2.3285126020
  C        10.9929963772       -2.4682093147        0.9071862521
  C        11.9781638324       -1.9167673981        0.1140679995
  H        11.9502577159       -2.0412654773       -0.9541356518
  H        10.1712014927       -3.0121749349        0.4603032039
  H        10.2698339114       -2.7761736663        2.9428109293
  H        12.1708135069       -2.0609713287        4.0487532540
  C        14.2199051496       -1.0511483051       -1.3960270568
  C        15.3085758748       -1.8204542433       -1.8929742161
  C        15.3858584030       -2.1507947633       -3.2435219727
  C        14.4250589975       -1.7101838570       -4.1361243664
  C        13.3639211074       -0.8973045536       -3.6702507733
  C        13.1927162443       -0.5772262372       -2.3498943758
  H        12.3054353914       -0.0101542068       -2.0344028348
  H        12.6695988039       -0.5629954352       -4.4531685884
  H        14.4680999151       -1.8916666749       -5.2067678121
  H        16.1155773565       -2.8353599928       -3.6381062892
  H        16.1247378699       -2.0948182824       -1.1743894497
  C        12.0995724079        7.3626275517        2.3836466280
  C        11.0139783027        7.9932542950        3.0528187661
  C         9.8093617182        8.2992546710        2.4187020575
  C         8.6382543409        8.7620356384        3.1090626611
  C         7.5218656956        9.2289017736        2.4925791945
  C        11.0699399134        8.2987257163        4.5778069184
  C        11.7449360701        9.3857006574        5.1323619668
  C        11.6173405400        9.7280282494        6.5336573704
  C        10.8779897370        8.9351815411        7.4058872610
  C        10.2604044220        7.7630086446        6.8553139405
  C        10.4406568855        7.4132516175        5.4963102826
  H         8.6323034116        8.6838627094        4.2264257215
  H         6.8125715059        9.7557074575        3.1567576711
  H        12.4877564759        9.9441438506        4.5474136314
  H        12.0508577168       10.6505030160        6.8817728799
  H        10.7583639228        9.1729049042        8.4029840358
  H         9.6479283804        7.1438919553        7.4859969288
  H         9.9377966619        6.5957001690        5.0894062044
  C        12.0485501371        7.4522183245        0.9148343162
  C        13.0827493066        6.8102939339        0.1630083087
  C        14.1874870456        6.1792064857        0.8375506169
  C        14.2259325511        6.0215589369        2.2988879749
  C        13.1300329251        6.5950976571        3.0272174129
  C         9.7734503008        8.3364293009        0.9579723888
  C        10.9237670778        8.0571704180        0.2182319884
  C        10.9545105492        8.3405594538       -1.2687876455
  C        11.7109473291        9.4350481016       -1.7271705775
  C        11.4980096768       10.0292649723       -2.9910498483
  C        10.6965131392        9.4315602838       -3.9410008376
  C        10.0621777722        8.2346226259       -3.5488719643
  C        10.1342516183        7.7124975196       -2.2637339967
  H         9.5013528372        6.8579509585       -2.0077385599
  H         9.4402866392        7.7680528010       -4.2520995305
  H        10.6980951823        9.6880489628       -5.0070544481
  H        12.2024660240       10.8548891487       -3.2297909261
  H        12.4994755065        9.8720533477       -1.0150019422
  C         8.5510588032        8.7790872948        0.3751974261
  C         7.4282851571        9.2052756316        1.0519275174
  H         6.5068240729        9.4526280428        0.4554943785
  H         8.5807470537        8.7491848528       -0.7150110764
  C        13.1691584050        6.1616268749        4.5126665634
  C        12.4620139444        4.9638459124        4.7912955071
  C        12.4454469923        4.4043918870        6.1041456509
  C        13.1370845528        5.1320385982        7.0938376208
  C        13.8267150561        6.3401695622        6.7183834601
  C        13.8197928746        6.9187709978        5.4868560880
  H        14.4750684507        7.7307697587        5.1920492489
  H        14.3929755653        6.7617010208        7.5761887730
  H        13.2041649362        4.7867204946        8.1499160036
  H        11.8162671717        3.5276692561        6.3178983490
  H        11.9565273551        4.3864152706        4.0324676397
  C        15.2872031878        5.3400393251        2.9616846915
  C        16.2577559321        4.6589186194        2.1795858381
  C        16.1691898336        4.7062692985        0.7668598799
  C        15.1960719272        5.4644978230        0.1261824324
  H        15.1125437204        5.3806977224       -0.9511637181
  H        16.8396136674        4.0639408652        0.1507727822
  H        17.1286453903        4.0559307837        2.5842644517
  H        15.1528362445        5.2638376965        4.0467867026
  C        12.9094333560        6.4507972306       -1.2745579138
  C        12.4133298312        5.1207076426       -1.4967440583
  C        12.2242778482        4.5492356556       -2.7953868288
  C        12.6776304781        5.1933218687       -3.9186933731
  C        13.4326122965        6.3356992348       -3.7326173909
  C        13.4630896047        7.0105682828       -2.5003564506
  H        13.8410755874        7.9540604201       -2.3394832267
  H        13.7911083054        6.8879993663       -4.5969644824
  H        12.5525938389        4.8541560311       -4.9495034120
  H        11.6889563817        3.6183494951       -2.8978098625
  H        12.0907841218        4.6253154479       -0.5723454254
