140

  C        14.9646091277        0.1438839729        1.9364026688
  C        16.0975411141        0.7710819583        2.4801312210
  C        17.1261300826        1.2541768607        1.7107353319
  C        18.3327086344        1.8114726221        2.2982636002
  C        19.2193908020        2.4069693659        1.3951987474
  C        15.9612161841        1.2360723078        3.8852294310
  C        14.9853301993        2.1571611597        4.2089330144
  C        14.7980166423        2.6625098510        5.4844213447
  C        15.7001633026        2.4069477636        6.5323867512
  C        16.7189228143        1.4575459302        6.2722539278
  C        16.8852636245        0.9059639402        4.9645822390
  H        18.4635243481        1.7926955120        3.3570590608
  H        20.2072996595        2.7649544547        1.7057397828
  H        14.3487057152        2.5134419614        3.4196328807
  H        13.9982357971        3.3927830403        5.5759730100
  H        15.6010797557        2.7761417120        7.5431806793
  H        17.3757718822        1.1851623283        7.1322161045
  H        17.6621659593        0.1237571035        4.7794566489
  C        14.8527602416       -0.0162067771        0.4575829324
  C        13.7550001643       -0.7322316612       -0.1044397853
  C        12.6959597405       -1.1721337789        0.6338295659
  C        12.7789375016       -1.0811291076        2.0952075003
  C        13.9457326625       -0.4876646663        2.7786453304
  C        17.0073497800        1.2306953390        0.2967464093
  C        15.8697401413        0.6491175264       -0.2813099216
  C        15.6177927755        0.9528282370       -1.8256992910
  C        14.7451673851        1.9596153366       -2.2169434463
  C        14.6371395266        2.3878222547       -3.5594987884
  C        15.4714891982        1.7757267100       -4.4850238273
  C        16.3950393012        0.8019427831       -4.1004121443
  C        16.3811828339        0.3530627075       -2.8103807046
  H        16.9858883152       -0.4475064514       -2.4166316606
  H        17.0136525130        0.3405560201       -4.8576879320
  H        15.5290310071        2.0101182377       -5.5482252771
  H        13.8878730152        3.1412007330       -3.7125887262
  H        14.0173608188        2.4831439303       -1.5369630388
  C        17.8545426349        1.9006879998       -0.6070652462
  C        19.0098171008        2.4350579016       -0.0159149217
  H        19.5902829795        3.1770658639       -0.5406478186
  H        17.4520400762        2.0997439783       -1.5929474831
  C        14.1347855062       -0.9414165121        4.1635737014
  C        15.1248297395       -1.9681894037        4.3639361077
  C        15.2258445772       -2.6619603702        5.5848565849
  C        14.3915757794       -2.2673383244        6.6814398960
  C        13.5388611627       -1.2040413624        6.4801971099
  C        13.3517687525       -0.5918471901        5.2445639677
  H        12.5949872853        0.1358916246        5.2495049578
  H        13.0328552413       -0.7531925291        7.3693709413
  H        14.4785545443       -2.6912216062        7.6326062636
  H        15.9799402494       -3.3364835443        5.8771508929
  H        15.7551681645       -2.3045849131        3.5378358211
  C        11.7812217315       -1.7577390755        2.8203918004
  C        10.7508588929       -2.4218620981        2.2064344871
  C        10.6467147260       -2.5254736638        0.8159384916
  C        11.5318785471       -1.7764532959        0.0472194845
  H        11.3991281671       -1.8208599165       -1.0567780395
  H         9.8786619000       -3.0984698771        0.3326138352
  H        10.0111236489       -2.9617718487        2.7784860973
  H        11.7969964790       -1.8517116996        3.9048132204
  C        13.8615270049       -1.2713372112       -1.5042158580
  C        14.7108825141       -2.2985924951       -1.8949096836
  C        14.6886050408       -2.8757139206       -3.1590865023
  C        13.9140201653       -2.3597888196       -4.1892916424
  C        13.0958386855       -1.2572951194       -3.8515411151
  C        13.0654850490       -0.7144734925       -2.5216592889
  H        12.4868398338        0.1855096067       -2.3387859429
  H        12.4355528909       -0.9228390452       -4.6102391986
  H        13.5954232352       -2.8793108325       -5.0611422866
  H        15.3786312045       -3.6908142480       -3.3891158897
  H        15.3341823067       -2.8135000355       -1.1953110275
  C        11.2455246846        7.2525321891        2.0572746204
  C        10.2874246351        8.0229277370        2.7798171365
  C         9.1894084939        8.6142544437        2.0316813297
  C         8.1209352372        9.2368553199        2.7237640215
  C         7.1235674166        9.9095616252        2.0343832076
  C        10.3428621077        8.2911320976        4.2576401655
  C        11.1885301950        9.3566423009        4.6369501594
  C        11.1778884677        9.7532784052        5.9835256599
  C        10.4210498349        9.1026432073        6.9465433329
  C         9.5649046928        8.0920818253        6.5358864213
  C         9.5352471210        7.7013486109        5.2246974449
  H         8.0667545134        9.2960233679        3.8345169261
  H         6.3588491826       10.4389665347        2.5352542910
  H        11.7783092659        9.9104850036        3.9457946099
  H        11.8740429822       10.5421211924        6.3463517776
  H        10.3561770917        9.5470285972        7.9393591103
  H         8.7494033332        7.5702165177        7.2178126199
  H         8.8232382534        6.9720193580        4.8288682507
  C        11.2452409702        7.3001895054        0.5800529989
  C        12.1974221883        6.4983261918       -0.0951688520
  C        13.3733670902        6.0235410297        0.5119473098
  C        13.4392822947        5.9940122828        1.9831323733
  C        12.3801378721        6.5630150871        2.7348211940
  C         9.2385275311        8.7131953836        0.5763528831
  C        10.2758773419        8.0560671649       -0.1058649772
  C        10.3911129749        8.4311904810       -1.5973472020
  C        11.0260953939        9.6160041474       -1.9999313359
  C        10.9189168991       10.0051737369       -3.3447263495
  C        10.2822569045        9.2380529803       -4.3391743654
  C         9.6050675207        8.0980695646       -3.8958892641
  C         9.6680594462        7.6942868600       -2.5385596717
  H         9.0511865901        6.8724527003       -2.2295203096
  H         9.0215410154        7.4805015273       -4.5923612572
  H        10.2929389746        9.6428334728       -5.3228862163
  H        11.4612707070       10.8566793390       -3.6506524226
  H        11.4947607984       10.3442002888       -1.3429757306
  C         8.1394780499        9.3401470924       -0.0194786437
  C         7.0884839105        9.8693435091        0.6670034452
  H         6.2665834418       10.3047131387        0.0746314355
  H         8.0910744447        9.4285531410       -1.0666997104
  C        12.1588854367        6.1238210225        4.1444092686
  C        11.1205631701        5.2249624821        4.3446557956
  C        10.7664059183        4.7183667846        5.6608412917
  C        11.5698735906        5.0750341318        6.7564153865
  C        12.6206024853        6.0287932954        6.5175107982
  C        12.9291069675        6.5463319718        5.2785211411
  H        13.6995491042        7.2634401306        5.1011353454
  H        13.1827516909        6.3852335956        7.3885264097
  H        11.3782306826        4.6632624324        7.7694812546
  H        10.0495170256        3.9369554663        5.7621878081
  H        10.4570321282        4.9770104405        3.5046305451
  C        14.5232873485        5.2484872345        2.5283391102
  C        15.4825597547        4.5464213285        1.8255323804
  C        15.4161780040        4.5147008974        0.3645318218
  C        14.4470456680        5.2558882380       -0.2600218762
  H        14.3740724042        5.2623932778       -1.3474161548
  H        16.1606332167        3.9079343871       -0.0967664814
  H        16.1756900921        3.8536756058        2.2425270857
  H        14.6073653752        5.2625183188        3.6117740278
  C        11.9478029211        5.9974595485       -1.5362147176
  C        10.9697011371        5.0234603647       -1.9373388723
  C        10.8574908794        4.6817992205       -3.2924666833
  C        11.7487578613        5.2917328000       -4.2077240039
  C        12.7477007103        6.1402145694       -3.8545169658
  C        12.8330336226        6.5041515820       -2.4669567130
  H        13.5523878209        7.1977031401       -2.0824712506
  H        13.4096672715        6.6943870823       -4.5895554662
  H        11.6298817160        5.0207664075       -5.2489760940
  H        10.0618457754        3.9922487732       -3.5482627488
  H        10.2475969208        4.6655975853       -1.1949215376
