140

  C        11.7619880246        1.4882415163        1.6137533222
  C        12.8715521695        2.0701161589        2.2842767754
  C        13.9270097059        2.5545180972        1.5601116399
  C        14.8724481348        3.4373889003        2.2249845686
  C        15.9271110215        4.0108855609        1.5666112353
  C        12.6843112079        2.4085716680        3.7103330306
  C        11.6661312898        3.3376615086        3.8739039805
  C        11.4411131379        3.8321002629        5.1447683310
  C        12.2378806409        3.3926639742        6.2480558541
  C        13.2983522169        2.5405576816        6.0470031708
  C        13.4720849107        1.9803940900        4.7912641962
  H        14.7074956029        3.6833186479        3.2468720228
  H        16.5960754732        4.7026223032        2.1173910832
  H        10.8518358903        3.5440287379        3.2216216590
  H        10.4869418336        4.3681773412        5.3922021787
  H        12.0359874486        3.8425159466        7.2243075387
  H        13.9868277297        2.2903672939        6.8580409285
  H        14.1832604567        1.1655506654        4.6914248590
  C        11.6953507400        1.5271947308        0.1585729113
  C        10.5101324825        1.0137432786       -0.4817925193
  C         9.4774224781        0.4396292643        0.2889660283
  C         9.6143732099        0.3073541455        1.7312422177
  C        10.7961674963        0.8227089215        2.4010624474
  C        13.9598655499        2.4381532162        0.1219339087
  C        12.8375927052        2.0142852358       -0.5397754292
  C        12.8636318604        2.1586944874       -2.0304413925
  C        12.4889958778        3.3710694278       -2.6298489209
  C        12.5646838804        3.4823689983       -4.0062814821
  C        13.1072117093        2.4835301888       -4.7950263182
  C        13.5661415740        1.3245207713       -4.1742123720
  C        13.4794902574        1.1368060418       -2.8130403783
  H        13.7250881000        0.1886852467       -2.3835272439
  H        13.9428362083        0.5066982365       -4.8062683281
  H        13.0735520272        2.5127384029       -5.8588405440
  H        12.2373791726        4.3958583381       -4.4905609510
  H        12.0432942921        4.1096247820       -2.0218269716
  C        15.1352963948        3.0317867153       -0.5251079396
  C        16.0816441970        3.7260421978        0.1571833525
  H        16.9404693270        4.0416641171       -0.4116642390
  H        15.1946253171        3.0053536402       -1.5471573965
  C        10.8546057541        0.4188011819        3.8313000086
  C        11.6745990729       -0.6458030631        4.2068099803
  C        11.5818933180       -1.2534409991        5.4873806316
  C        10.6523142228       -0.7232215188        6.4473609351
  C         9.8013463083        0.3212367709        5.9957465958
  C         9.9110267020        0.9167213726        4.7226969978
  H         9.3015172460        1.7305403012        4.4106672439
  H         8.9689590559        0.5633455750        6.6365171108
  H        10.3665552420       -1.1239381225        7.4357225184
  H        12.1031130719       -2.2380993714        5.6100094933
  H        12.4559448886       -1.0501125349        3.4490641159
  C         8.6053908455       -0.5224929944        2.3978210905
  C         7.5373050554       -1.1697968161        1.8450669974
  C         7.4253323721       -1.0352282301        0.4103238905
  C         8.2629803360       -0.1614607534       -0.3103748322
  H         8.2760705246       -0.1032129152       -1.4091029232
  H         6.5865003040       -1.4089715218       -0.1475182804
  H         6.9130845855       -1.7734059044        2.4944505209
  H         8.7638601904       -0.6550407349        3.4677234442
  C        10.4416334385        0.7287858778       -1.9399738718
  C        10.6498120773       -0.6269586849       -2.3336501407
  C        10.3879181040       -1.0200274978       -3.6123622604
  C         9.9239073234       -0.1278448321       -4.5847858396
  C         9.7306218812        1.2295648018       -4.2601801327
  C         9.8982245039        1.6166774801       -2.9054686634
  H         9.7362298644        2.5533218009       -2.5307325533
  H         9.5333355252        1.9206276601       -5.0474979629
  H         9.7416477645       -0.4714713349       -5.6283469451
  H        10.6219129806       -2.0512751977       -3.9505015288
  H        11.0228486948       -1.2812346217       -1.5481124813
  C         8.0862623519        8.4866790990        1.4685955058
  C         6.9596749513        9.0968422076        2.1012684013
  C         5.9630374805        9.6874147993        1.3736140434
  C         4.8950033567       10.4050620306        1.9559740929
  C         3.8458710105       10.8918835806        1.2438285981
  C         7.0814222485        9.4014558753        3.5210399481
  C         7.9798629297       10.3647229975        3.9437547558
  C         8.1038082049       10.7550054434        5.3181422997
  C         7.2986978913       10.0707427231        6.2426522303
  C         6.4144300993        9.0992732784        5.8215186394
  C         6.2536267013        8.7534760984        4.4813795974
  H         4.7829446162       10.4859912926        3.0459882461
  H         3.0673108139       11.4230422409        1.7592797829
  H         8.6072755833       10.8271678630        3.1885084986
  H         8.8187739924       11.4911266088        5.5336494373
  H         7.3835092976       10.1659880336        7.2915788746
  H         5.9864373341        8.3971366925        6.5573740989
  H         5.5685826805        7.9706328450        4.1509670765
  C         8.1708989216        8.4817837431       -0.0347109019
  C         9.0888315649        7.6677578957       -0.7169243702
  C        10.1706133019        7.1217320825        0.0364559217
  C        10.2480559725        7.3130209889        1.4322689104
  C         9.1820531519        7.8756485629        2.1746464466
  C         6.0425563454        9.6653624230       -0.0872296367
  C         7.1579114357        9.1749081741       -0.7435319261
  C         7.2195029165        9.4787343926       -2.2031638296
  C         7.8576456333       10.6464176524       -2.5855489929
  C         7.7871986447       11.0037328193       -3.9554527982
  C         7.0959195307       10.2537712377       -4.9103486055
  C         6.3481214073        9.2009815201       -4.4863365555
  C         6.3962399403        8.8532481908       -3.1506849580
  H         5.8710704330        7.9652370426       -2.9155562602
  H         5.8040600273        8.6093871757       -5.1563588444
  H         7.1388738949       10.4323314440       -5.9810989748
  H         8.2716408669       11.9094417869       -4.2221042853
  H         8.4194839089       11.2937001213       -1.8803707450
  C         5.0192967340       10.3575409564       -0.8122910757
  C         3.9029608044       10.8616449167       -0.1922206562
  H         3.0495850908       11.2295861800       -0.8152575681
  H         5.0664814656       10.3784664035       -1.8935988691
  C         9.1115755897        7.4615244287        3.6215474547
  C         8.2325532098        6.4044254432        3.9109771366
  C         8.1306609044        5.8701607632        5.2478904426
  C         8.9415918232        6.3896391529        6.2707573334
  C         9.7449435850        7.4555298684        5.9617833620
  C         9.8223252546        7.9829651043        4.6518971322
  H        10.5878053204        8.7414643348        4.4663923188
  H        10.3003929096        7.8685857825        6.7878002727
  H         8.8684632156        5.7731736661        7.1715511972
  H         7.5134470715        4.9927538560        5.3195086691
  H         7.7001381205        5.9739100638        3.0931273800
  C        11.2673325988        6.6058250301        2.2002110085
  C        12.2564946535        5.9068494556        1.5640445752
  C        12.2170091082        5.6977544870        0.1668121019
  C        11.2006241167        6.3096673260       -0.5528902527
  H        11.1124732589        6.0871948738       -1.6428543103
  H        12.9464487830        5.0222506485       -0.3702926981
  H        13.0953685341        5.4224942984        2.0375985525
  H        11.3535760940        6.8620680239        3.2883306475
  C         9.0812025347        7.3345551081       -2.2595294435
  C         8.3792453659        6.2283251218       -2.8138133777
  C         8.3236553659        5.9861713817       -4.1686082539
  C         9.0237246211        6.8818609236       -4.9913466795
  C         9.7346315656        7.9613231905       -4.4723610024
  C         9.7206745394        8.1833325534       -3.1048873641
  H        10.2438406913        9.0306200760       -2.7101544886
  H        10.0784041626        8.6585722873       -5.1737370296
  H         9.1337456334        6.7062494117       -6.0549733805
  H         7.7260708461        5.1619130539       -4.6165484651
  H         7.9117785938        5.4540142396       -2.1532960289
