140

  C        14.3604773522        0.1611307218        1.6197441102
  C        15.3719119584        0.8303636413        2.3529770066
  C        16.6253869292        1.2459662186        1.8393874411
  C        17.6420744955        1.9322483990        2.5958256201
  C        18.7872732990        2.3702425192        2.0394455654
  C        15.2327517435        1.1209568957        3.8241114543
  C        14.4839258139        2.2307444310        4.2391254581
  C        14.5050098958        2.6445654298        5.5422959847
  C        15.3342957062        2.1032421494        6.5443770531
  C        16.1107999126        1.0417701890        6.1246530947
  C        16.0730160345        0.6367496746        4.7798356182
  H        17.5670197103        1.9393562212        3.6753062367
  H        19.6713415037        2.5722621745        2.6543973835
  H        13.9521408171        2.7463495866        3.4817142482
  H        13.9293124824        3.5494740822        5.7329241230
  H        15.3641745272        2.5741531537        7.5093350558
  H        16.7593589324        0.5066698409        6.7835032185
  H        16.6452729561       -0.2723154482        4.5100712240
  C        14.5246311587        0.0899938119        0.1564055652
  C        13.5326479788       -0.5734908222       -0.5783662140
  C        12.4494977312       -1.2115147055        0.0335821953
  C        12.3099090021       -1.2271338600        1.4652280645
  C        13.3185330649       -0.6417018265        2.2502554301
  C        16.7915114343        1.3645148757        0.3966631552
  C        15.7146647080        0.8372889135       -0.3891088455
  C        15.8052221874        1.0948778717       -1.7827715935
  C        14.9852191776        2.0761663775       -2.3279833615
  C        15.1326533440        2.5902508854       -3.6032774531
  C        16.0750342335        2.0284533402       -4.4821221057
  C        16.8594967085        0.9712164966       -3.9750238956
  C        16.7207735400        0.5153288016       -2.6296161845
  H        17.3527868854       -0.2575119016       -2.1795143426
  H        17.6714932872        0.5149931654       -4.5705919573
  H        16.2770186425        2.4187170909       -5.4823438130
  H        14.5202422037        3.4674391128       -3.9684378907
  H        14.1766657109        2.4103776938       -1.6562150258
  C        18.0503383672        1.9029846916       -0.1805105130
  C        19.0257028684        2.3781776547        0.6252690998
  H        19.8359090243        2.8477191806        0.1141413520
  H        18.1406852866        1.8150394763       -1.2347200114
  C        13.3982611203       -0.9524332681        3.6920034591
  C        13.9037779475       -2.1915712882        4.1475337558
  C        13.8057819583       -2.5796074448        5.4519778737
  C        13.1091707499       -1.8575144173        6.4269598521
  C        12.4379704047       -0.6897657540        6.0173385214
  C        12.6406708477       -0.1981941437        4.6906579459
  H        12.1705549104        0.6769318174        4.3173156735
  H        11.7955439594       -0.0541517637        6.7476286945
  H        12.9655566472       -2.3216590676        7.3858880398
  H        14.2204150600       -3.5509045888        5.7118604751
  H        14.3967826855       -2.8263913959        3.3543323447
  C        11.2015085281       -1.8914610467        2.0803408545
  C        10.3044030011       -2.5698166430        1.2720917088
  C        10.4120535522       -2.4717596002       -0.1249198611
  C        11.5042382015       -1.9531729277       -0.7286209498
  H        11.4124187564       -1.9845398004       -1.8151665572
  H         9.5777700999       -2.8470265796       -0.7062004719
  H         9.4879676775       -3.1347233308        1.7416664778
  H        10.9727792231       -1.8919084113        3.1498736308
  C        13.7928215352       -0.8802444341       -1.9972853009
  C        14.6685216950       -1.9248313675       -2.4087657486
  C        14.7289994508       -2.3602364414       -3.7482081967
  C        13.8410256352       -1.7155410748       -4.6815622307
  C        12.9010832476       -0.7941655224       -4.2173583257
  C        12.9288743625       -0.2712961772       -2.9172164307
  H        12.3139692390        0.5690098819       -2.5726410229
  H        12.2440361080       -0.3512874580       -4.9342915499
  H        13.7966539936       -2.0759186960       -5.6901404762
  H        15.4806872236       -3.0220922555       -4.0664550254
  H        15.4180968612       -2.2727189568       -1.7305607317
  C        11.3315924521        7.2246572493        1.7360645523
  C        10.2877569435        7.9136459975        2.4767641362
  C         9.1956588559        8.5026536513        1.8429538463
  C         8.1206402873        9.0874948848        2.6218169853
  C         7.0654647113        9.7147534885        2.0704574643
  C        10.3107134926        8.1894971577        3.8958642575
  C        10.8229730591        9.3535017794        4.3966231402
  C        10.7284758490        9.7148143985        5.7266959981
  C         9.9666951799        8.9913847665        6.6317250044
  C         9.3317713212        7.8466732044        6.1118514052
  C         9.5702007221        7.3748564109        4.8162326915
  H         8.1139629983        8.9721215657        3.7602294525
  H         6.1952739961       10.0535201483        2.6341628205
  H        11.3610794081       10.0412725346        3.7127187406
  H        11.3463058502       10.5633544386        6.0688084333
  H         9.6990966897        9.3330200012        7.6379149314
  H         8.7944669782        7.3156497564        6.7959988690
  H         8.9735317872        6.4433875812        4.5828439269
  C        11.2861656100        7.3318703993        0.2578402664
  C        12.1956072459        6.5557986019       -0.5015346196
  C        13.3101823005        5.9618296834        0.0906831617
  C        13.4346139317        6.0039553992        1.5603552306
  C        12.4107014144        6.4927286875        2.3335142065
  C         9.1502786094        8.5629369563        0.4358985002
  C        10.2215622153        8.0826390959       -0.3804257563
  C        10.1965607822        8.4072479780       -1.8382296240
  C        11.0731344571        9.4186916578       -2.4079408346
  C        10.9638319336        9.7408547857       -3.7819042768
  C         9.9844701695        9.1402222146       -4.6061755275
  C         9.1089901562        8.2124140880       -4.1077956173
  C         9.2063883401        7.8936063326       -2.7283340564
  H         8.4604001375        7.2268580061       -2.3699287014
  H         8.3750490343        7.6881797788       -4.6953814079
  H         9.9067539589        9.3585724600       -5.6621164964
  H        11.7152264147       10.4232735904       -4.2089866448
  H        11.7570277016        9.8959919767       -1.7096736126
  C         8.0444384180        9.3284740010       -0.0913799787
  C         7.0763912062        9.8921350337        0.7059999925
  H         6.1836628177       10.3818972449        0.3037459170
  H         7.9577682557        9.4028357326       -1.1904600675
  C        12.4244418760        6.0688343052        3.7928872956
  C        11.7161095379        4.9302009517        4.1539740577
  C        11.6981555494        4.5529652292        5.4896478746
  C        12.1558834003        5.4148872567        6.4971648077
  C        12.8012492736        6.6062280277        6.1136008111
  C        13.0275496844        6.8641096096        4.7734008450
  H        13.4054507021        7.8617270151        4.5421671537
  H        13.1007256545        7.4099469526        6.7962197999
  H        11.9329990862        5.0903342421        7.5480021569
  H        11.1108044620        3.6379077713        5.7774726049
  H        11.2666086647        4.2687296469        3.4607075292
  C        14.6307565436        5.4373055328        2.1631066604
  C        15.5732580322        4.7356649588        1.4580993401
  C        15.2850259775        4.4619442439        0.0657449713
  C        14.2051912508        5.0445927858       -0.5577826464
  H        14.0122941805        4.8829547006       -1.5988180581
  H        15.9049381338        3.8243957972       -0.5898879635
  H        16.4542251727        4.3564694329        2.0105515003
  H        14.7586270686        5.5484740574        3.2392423356
  C        12.0568361944        6.2527885848       -1.9780971786
  C        11.1531487509        5.2677259763       -2.3957263225
  C        11.1459347401        4.8250336266       -3.7567142918
  C        12.1360437062        5.2954293942       -4.6453308049
  C        12.9722217096        6.3426720563       -4.2459725220
  C        12.9169429508        6.8572927721       -2.9288514008
  H        13.6539273185        7.6841827556       -2.7767754803
  H        13.7318242335        6.8067879560       -4.9638922844
  H        12.2234838099        4.9353841073       -5.6798966170
  H        10.4589046803        4.0677602845       -4.1131612482
  H        10.3723557144        4.9168255855       -1.6675365762
