140

  C         2.2528354341        0.4824552177       14.6069384203
  C         3.2115712617        1.2011162292       15.2842842913
  C         4.2950281066        1.8507805732       14.6375773703
  C         5.4313979473        2.3331672970       15.3064029365
  C         6.5759544899        2.8869184017       14.6753061972
  C         3.2311673224        1.4897201884       16.7728460747
  C         2.6012573696        2.6307782972       17.3122964578
  C         2.6783132245        3.0723158714       18.6317863007
  C         3.5776804490        2.4753227170       19.4528527339
  C         4.3226911486        1.3285855026       19.0084419159
  C         4.1683094819        0.8351558197       17.6947510132
  H         5.4229964153        2.3717552651       16.3882817660
  H         7.4515488781        3.3437179946       15.1832274948
  H         2.0636440910        3.2397246999       16.5892577404
  H         2.1069022599        3.9339417123       18.9457458588
  H         3.8458724501        2.9401468018       20.3890182622
  H         5.0610811473        0.8575686732       19.6990899159
  H         4.7279367645       -0.0445619502       17.4144417183
  C         2.3257716476        0.4813473577       13.1524514524
  C         1.3822577030       -0.3254346175       12.3953547676
  C         0.3128244432       -0.8963708344       13.1224068365
  C         0.2276953896       -0.9415022631       14.5346478048
  C         1.1884156578       -0.2029415761       15.3099263631
  C         4.3466781088        1.9533580567       13.1845615246
  C         3.3076239256        1.2585956884       12.4908607726
  C         3.2660388834        1.5836263155       11.0259248532
  C         2.5025673598        2.6857588040       10.5791566178
  C         2.5789559398        3.1419007653        9.2601501040
  C         3.4284288756        2.4776663516        8.3842260030
  C         4.1987337168        1.3922553979        8.8583554766
  C         4.0729115737        0.9160939271       10.1577288583
  H         4.5903335197        0.0652343373       10.5511364113
  H         5.0067788213        1.0841997965        8.1611053682
  H         3.5314761779        2.9820258170        7.4148235326
  H         2.1475672976        4.0718459916        8.9605490348
  H         1.8897090208        3.1870658257       11.3329914553
  C         5.5037564796        2.4293727108       12.5363283489
  C         6.5588901009        3.0075060719       13.2372272816
  H         7.3569515219        3.5025759305       12.6269562029
  H         5.4878622632        2.4955801329       11.4221817433
  C         1.3174481646       -0.4019374899       16.7921052716
  C         2.1482345317       -1.4476359821       17.2853033891
  C         1.9743776045       -1.8440782282       18.6121160739
  C         1.0565772386       -1.2224134758       19.4262116636
  C         0.2317622965       -0.2351292521       18.9000983945
  C         0.3408658634        0.1293151092       17.5623446923
  H        -0.2822739086        0.8400419547       17.1187832043
  H        -0.5226536743        0.2060400875       19.5089594710
  H         0.8317597356       -1.5643764556       20.4813641471
  H         2.6878552533       -2.5890276799       18.9600464715
  H         2.9149125288       -1.8367350478       16.5805640675
  C        -0.7796841081       -1.7209489769       15.1694835840
  C        -1.7616215316       -2.3734128079       14.4670111660
  C        -1.8006410552       -2.1673190693       13.0564604561
  C        -0.7782745664       -1.5090904554       12.4600193513
  H        -0.7993755781       -1.3075385640       11.3984205042
  H        -2.6946006815       -2.5731768417       12.5191281944
  H        -2.3704318418       -3.0988892382       15.0318843963
  H        -0.7567292176       -1.8297315561       16.2298396205
  C         1.5095041116       -0.5448855440       10.9272694059
  C         2.3421329930       -1.6179752497       10.6564247953
  C         2.4055279666       -2.1325406317        9.4159192350
  C         1.5625490654       -1.5830354494        8.3886173988
  C         0.6898465438       -0.5296850332        8.6548173123
  C         0.6351195250        0.0092730398        9.9485793518
  H        -0.1549327818        0.7640142037       10.2328177649
  H         0.1334608792       -0.1540918472        7.7939502935
  H         1.6814436920       -2.0291232491        7.4185116722
  H         3.1928213887       -2.7991546924        9.1806701665
  H         2.7684214697       -2.0893922637       11.5723240195
  C        -1.3786761781        7.6432381678       14.5816458495
  C        -2.3976371615        8.3712536374       15.3370714631
  C        -3.6010944594        8.8285534635       14.6268545740
  C        -4.7137376019        9.4805664224       15.2938830118
  C        -5.7976297896        9.9700973725       14.5375513964
  C        -2.3542793428        8.6684171663       16.8288743448
  C        -1.5364833844        9.7599723072       17.3057176108
  C        -1.6814647538       10.2622258627       18.6134029109
  C        -2.4855261747        9.5967170892       19.5148521432
  C        -3.2651832889        8.5346792455       19.1587097923
  C        -3.1549266185        8.0351611127       17.8536078987
  H        -4.7126882746        9.6224676726       16.3739587911
  H        -6.6044672023       10.5328973493       15.0223915255
  H        -1.0084664274       10.2585334527       16.5109177129
  H        -1.2136342574       11.2360122254       18.9045885650
  H        -2.5057487046       10.0079374182       20.4889082612
  H        -3.8904670863        8.0480070876       19.9190211187
  H        -3.5594102759        7.0593633118       17.5704641758
  C        -1.3489890628        7.7704055793       13.1487852987
  C        -0.2669018338        7.1524388045       12.4068418076
  C         0.8163083809        6.5264552057       13.1455699918
  C         0.9263263890        6.6278865459       14.6048710492
  C        -0.2413350766        7.0630554466       15.3153669478
  C        -3.5491427525        8.8955734119       13.1961183471
  C        -2.4271428570        8.4496458655       12.4848176540
  C        -2.2797905565        8.8488492003       11.0100547866
  C        -1.4835093579        9.9557853406       10.5255566894
  C        -1.4078716662       10.2392342306        9.1484635559
  C        -2.2311996199        9.5796389493        8.2018286439
  C        -2.9558928569        8.5238624767        8.6631141210
  C        -3.0230408102        8.1713607702       10.0301185668
  H        -3.7387466417        7.4110448426       10.3332356068
  H        -3.5922691615        7.9700121179        8.0197454528
  H        -2.2134627544        9.8550634515        7.1641817638
  H        -0.8461149895       11.0699865515        8.8129229395
  H        -0.8366161306       10.4575378821       11.2413644172
  C        -4.6946301984        9.3209885007       12.4532360546
  C        -5.7715131795        9.8260265317       13.1100807067
  H        -6.6707497623       10.1130062685       12.5802438570
  H        -4.6062612126        9.2441097706       11.3960798261
  C        -0.2764884928        6.7122811197       16.7880424358
  C        -1.1873087867        5.7081635954       17.1303708743
  C        -1.2344160139        5.1261896220       18.4116745091
  C        -0.3312543005        5.5475870948       19.4100443559
  C         0.5580674497        6.5889569602       19.1149748846
  C         0.6013861936        7.1861206777       17.8055958250
  H         1.3633467078        7.9288059611       17.6666103691
  H         1.1567533910        6.9479322266       19.9911954240
  H        -0.3111129065        5.1218511470       20.3950879545
  H        -1.9403668780        4.3032945162       18.6234415253
  H        -1.8856153081        5.3300723567       16.4581667619
  C         2.1179215725        6.0619586931       15.2533339574
  C         3.0935822820        5.3844989668       14.5099537485
  C         2.8821528458        5.1701233431       13.0896670622
  C         1.8665428958        5.7863997017       12.4658521649
  H         1.7035844105        5.6778246622       11.3988112031
  H         3.6374578169        4.5725612058       12.5464897260
  H         3.9109880476        4.8602137152       15.0158156635
  H         2.2406563910        6.2759646507       16.3222449783
  C        -0.5259386586        6.6100913179       11.0248405256
  C        -1.2455183046        5.3883691466       10.9014666474
  C        -1.3909625575        4.8474515146        9.6204432163
  C        -0.8673989609        5.5012475886        8.5191938845
  C        -0.1492416804        6.6529351144        8.6543145727
  C         0.1213164633        7.1581906125        9.9331014257
  H         0.7074504744        8.0471464998        9.9985540862
  H         0.3206940294        7.0828439168        7.7983408678
  H        -1.2754049136        5.2544101563        7.5621569506
  H        -2.1405573766        4.0050759895        9.6180645840
  H        -1.7431341903        4.9652960202       11.7698129927
