140

  C         3.1385713287       -0.0108681860       14.7118994657
  C         4.2298140270        0.6645696869       15.4115775913
  C         5.3419189376        1.1443797503       14.7358339664
  C         6.4159848753        1.8732012103       15.4208477512
  C         7.3076981233        2.6005407288       14.6600845315
  C         4.1680246658        1.0270967783       16.8569113506
  C         3.3777237251        2.1817242018       17.1562081335
  C         3.4509112964        2.7820875267       18.4053372508
  C         4.2209123288        2.1887001149       19.3951831970
  C         4.9121529604        1.0034807533       19.2351152562
  C         4.8904431366        0.4293193977       17.9284517884
  H         6.3618700442        2.2140704070       16.5002484403
  H         7.8903582218        3.2128171252       15.2691746912
  H         2.7535799658        2.6172062785       16.3876665029
  H         2.8105467372        3.5774209017       18.7228328420
  H         4.1343357917        2.7174611877       20.3302322909
  H         5.4593454196        0.6452681669       20.1149070720
  H         5.2596190324       -0.5654629658       17.7246763312
  C         3.1939977755        0.0135344047       13.1413868025
  C         2.0556443543       -0.6335685341       12.4736620468
  C         0.9117438844       -1.0288373376       13.2195780387
  C         0.9128320960       -1.1011351272       14.6901718272
  C         2.0547151818       -0.6727637986       15.3854521367
  C         5.3639782775        1.0961356383       13.3190837952
  C         4.2652825963        0.6288970138       12.5280652845
  C         4.2450191377        0.9110745496       11.1022117564
  C         3.6569297512        2.0986123334       10.6596674042
  C         3.6375725881        2.5302186911        9.2959222804
  C         4.1890205253        1.6913849070        8.3480841984
  C         4.8722335392        0.5419077521        8.7737901904
  C         4.9884243254        0.1690445000       10.1206820398
  H         5.6569256966       -0.6661254012       10.4172875036
  H         5.3775550433       -0.0776130059        8.0108041897
  H         4.1754042770        1.8613632891        7.3001013390
  H         3.0239601543        3.3756384667        8.9680062056
  H         3.2069560013        2.6737665512       11.4677421768
  C         6.4042153193        1.8652798206       12.6517459454
  C         7.2416161566        2.7510995298       13.2852914161
  H         7.8919218654        3.4366211572       12.7524328659
  H         6.3382925924        1.8938083068       11.5928567959
  C         2.1223642428       -0.9568771022       16.9058650413
  C         2.7344703231       -2.1433920122       17.3329912899
  C         2.7240516666       -2.5591966416       18.6561369762
  C         2.0674042775       -1.7696458386       19.6088124001
  C         1.3603421969       -0.6331155166       19.1811534658
  C         1.3402278737       -0.2104817217       17.8392173595
  H         0.8581590782        0.7543997293       17.5774875449
  H         0.9106165311        0.0730404358       19.8512297736
  H         2.0585732758       -1.9562612910       20.6530426917
  H         3.2391310701       -3.4606300892       18.9481925885
  H         3.3456566656       -2.7775598593       16.6677646114
  C        -0.1697063548       -1.7059124913       15.3663252285
  C        -1.2390922037       -2.2909037089       14.6896347501
  C        -1.2143065911       -2.2748015096       13.2835173009
  C        -0.2406576506       -1.5984611351       12.5641608891
  H        -0.1910312214       -1.7225963937       11.4490173015
  H        -2.0110187149       -2.6332886177       12.6816638458
  H        -2.0162728275       -2.6277804383       15.3428026046
  H        -0.0862730966       -1.6599997717       16.4418291735
  C         2.1303530115       -1.0372046551       11.0180214445
  C         3.0195339348       -2.0756833900       10.6201645491
  C         3.0846392532       -2.5520500307        9.2857858572
  C         2.3075048588       -1.8416851327        8.3211487676
  C         1.4956474503       -0.7494659284        8.7013428219
  C         1.3515646238       -0.3890634065       10.0294225475
  H         0.7819421461        0.4409613108       10.3379970221
  H         0.8897862802       -0.2544331119        7.9696039250
  H         2.3626454267       -2.2209159882        7.2623696162
  H         3.6705711955       -3.3790103972        8.9947156358
  H         3.6354009212       -2.4651658445       11.4366083900
  C        -0.5130727961        7.1725091245       14.8802875139
  C        -1.6306543223        7.8246026846       15.5460694517
  C        -2.7060549214        8.4647080958       14.8650195692
  C        -3.7353938034        9.2400563531       15.5878251864
  C        -4.8088004168        9.7586991172       14.9084214157
  C        -1.5055604531        8.2051283583       17.0271439082
  C        -0.5690849359        9.2457234366       17.3839097649
  C        -0.4766207632        9.7082905848       18.7355332317
  C        -1.4802637398        9.3337979969       19.6314095391
  C        -2.4249069318        8.3698173341       19.2588570519
  C        -2.4253268892        7.7614768414       17.9964838838
  H        -3.6286944967        9.5401647303       16.6441703820
  H        -5.5986200141       10.3120497293       15.4593298958
  H         0.0514075713        9.6578382731       16.5842296511
  H         0.2905387125       10.4065076198       19.0694442254
  H        -1.4891813457        9.5924709340       20.6880244184
  H        -3.1324397593        8.0240832330       20.0012788459
  H        -3.0658393759        6.8917983802       17.7824469919
  C        -0.4456305030        7.2961832425       13.3315848180
  C         0.5298476253        6.5547653558       12.6575117694
  C         1.5527765969        5.9082449395       13.4142328412
  C         1.5557924138        5.9043511434       14.8837285041
  C         0.5150484847        6.4855594377       15.5938154329
  C        -2.6692971805        8.4540327551       13.4217826052
  C        -1.5531358115        8.0376778606       12.7043576917
  C        -1.4887071600        8.4966933196       11.2369675589
  C        -0.6884428917        9.6113388536       10.8646731118
  C        -0.7576173759       10.1079902876        9.5439064147
  C        -1.5002899237        9.4038872507        8.5942502224
  C        -2.1551059713        8.2343463285        8.9389159224
  C        -2.2043211244        7.8341820027       10.2490712539
  H        -2.6956860155        6.9005410387       10.5481445459
  H        -2.6658963172        7.6599723288        8.2121387276
  H        -1.4660736332        9.8067656946        7.5850137210
  H        -0.1888323594       11.0100744601        9.3214658410
  H        -0.1672052907       10.1972940120       11.5934126817
  C        -3.8894262069        8.9540757918       12.8372950339
  C        -4.9366816854        9.4774684936       13.5271087765
  H        -5.7853459479        9.8697246156       12.9315085305
  H        -3.9363967033        8.9797857279       11.7471722695
  C         0.4006264690        6.0356601991       16.9921107763
  C        -0.4534120152        4.9660785992       17.2863726234
  C        -0.5200557570        4.3952225732       18.5348642107
  C         0.4390136587        4.7933658861       19.5358150565
  C         1.3030004236        5.8325414349       19.1855433916
  C         1.2099008261        6.4740780246       17.9588993915
  H         1.9217575450        7.2466844780       17.7134320492
  H         2.0477256392        6.1513991794       19.9003435419
  H         0.3432403323        4.3428900275       20.5025623765
  H        -1.0947145434        3.5302257231       18.7186778665
  H        -1.1328734996        4.6099932044       16.5184338719
  C         2.6204163734        5.1425969323       15.4847230988
  C         3.6229268818        4.5483831316       14.7541146570
  C         3.7288412803        4.7906792473       13.3620987826
  C         2.6753547949        5.3731494851       12.7254573273
  H         2.7143648697        5.3811017870       11.6461443232
  H         4.4909106031        4.3379440510       12.7346515664
  H         4.3133500811        3.9109907353       15.3183468133
  H         2.5654762888        4.9864890495       16.5818536099
  C         0.5200122841        6.2087978259       11.1774961207
  C        -0.2392286219        5.1463050768       10.7153934042
  C        -0.2750554832        4.8017784254        9.3534257115
  C         0.3082994257        5.5780680408        8.3824664302
  C         1.0632554260        6.6911594891        8.7936320184
  C         1.1522930730        6.9481539471       10.1517760682
  H         1.7587996214        7.8249896016       10.3892680465
  H         1.5276065938        7.3877821207        8.0896132833
  H         0.4732399231        5.2899468997        7.3523906643
  H        -0.7034601335        3.8115654628        9.0973863818
  H        -0.8053850978        4.5064766524       11.4325900467
