140

  C         2.3895261996        0.6814458606       14.7121111900
  C         3.4139434901        1.3510175443       15.3915628942
  C         4.4317043001        1.9379639377       14.5978056017
  C         5.5524169701        2.5093951674       15.2634393433
  C         6.5968800063        2.9058772059       14.5306377323
  C         3.4211579115        1.7627988791       16.8280340929
  C         2.7203927659        2.9011669745       17.2776537684
  C         2.8100833864        3.3451288278       18.6416504582
  C         3.6308401268        2.6295596999       19.5080736469
  C         4.2816043702        1.4649189431       19.1166303756
  C         4.2441334886        1.0844517469       17.7871068247
  H         5.5719103708        2.7459530077       16.3328447590
  H         7.4859228219        3.2899983780       15.0371670904
  H         2.1565390990        3.5186972278       16.5415948333
  H         2.3613065838        4.2956886516       18.9422804748
  H         3.7864185794        2.9386136424       20.5676657605
  H         4.9613327596        0.8351640612       19.7419268911
  H         4.9508039173        0.3782058893       17.3921038218
  C         2.2762884930        0.6618362017       13.2430659275
  C         1.2227855600       -0.0826597401       12.6206353919
  C         0.1761302552       -0.6864111486       13.4116983572
  C         0.2136010497       -0.6173569746       14.8438899424
  C         1.3279160522       -0.0027129217       15.4675975478
  C         4.4158313755        1.8909884759       13.1880872311
  C         3.2819570907        1.4020505769       12.4970348764
  C         3.2022715242        1.6659582980       11.0225597710
  C         2.3818414388        2.7682949972       10.4984636263
  C         2.4621054561        3.2309140513        9.1968049163
  C         3.5239998186        2.6708425537        8.3577266588
  C         4.2994775581        1.5871785676        8.7610713113
  C         4.1718009476        1.1764225760       10.0883477766
  H         4.8776368283        0.3993834521       10.4313393317
  H         5.0696354249        1.1843118722        8.2030136463
  H         3.5156446262        3.0325948522        7.3560819324
  H         1.9281341723        4.1583030535        8.8622519547
  H         1.6590772137        3.3015116138       11.1021757497
  C         5.5638331480        2.4925374627       12.5048975011
  C         6.6724770183        2.8241233272       13.1796060055
  H         7.5297948700        3.1437662124       12.6485873662
  H         5.4680469729        2.7787949986       11.5091293654
  C         1.4177942129       -0.3383779363       16.9265896062
  C         2.1408169448       -1.4302101878       17.3945816793
  C         2.0818279390       -1.8267188760       18.7386698026
  C         1.3181043168       -1.1419755679       19.6728367249
  C         0.5537810192       -0.0576284655       19.1444598929
  C         0.5888538677        0.3888137763       17.8203041464
  H         0.0044375363        1.2134137441       17.4133294607
  H        -0.1484148791        0.4798630279       19.7425774136
  H         1.3878732201       -1.4175442523       20.7123532175
  H         2.7771243354       -2.5740745916       19.0432563460
  H         2.7392179783       -2.0728550301       16.7303912980
  C        -0.7425712480       -1.4135006631       15.5612284330
  C        -1.7988048524       -1.9235223206       14.9264355081
  C        -1.8915258375       -1.9487079906       13.5227033906
  C        -0.8347339280       -1.4257171972       12.7265359185
  H        -0.8506449487       -1.4086548877       11.6464072520
  H        -2.8173891429       -2.4152512639       13.1458007201
  H        -2.6372128939       -2.3848417789       15.4138796995
  H        -0.8062623325       -1.3226506876       16.6683885031
  C         1.2888605930       -0.4615200095       11.1765246072
  C         2.0203736755       -1.6269704632       10.7194412278
  C         2.2294815615       -2.0104124375        9.3958710446
  C         1.4459531365       -1.3565697210        8.4158920620
  C         0.7714330070       -0.2416327191        8.8731093860
  C         0.7497714989        0.2731363262       10.1783443798
  H         0.2469203173        1.1577894032       10.4496844171
  H         0.3794279032        0.4576391238        8.2028389415
  H         1.5916139599       -1.5868930768        7.3313535882
  H         2.9009517327       -2.8402828379        9.0455973060
  H         2.3576229898       -2.2888684299       11.5161274456
  C        -1.3153481682        7.9460756886       14.8415306663
  C        -2.3634222679        8.5467505240       15.5704178210
  C        -3.4216120718        9.1591048635       14.8526394102
  C        -4.5960651338        9.7011753000       15.4783588192
  C        -5.5875446861       10.2346758631       14.7328361983
  C        -2.4532870777        8.6336524850       17.1066196462
  C        -1.7240953551        9.6480924282       17.7681465103
  C        -2.0889919133       10.0707797427       19.0381840851
  C        -2.9821637557        9.3669074417       19.8090937979
  C        -3.7881504375        8.3817770143       19.2224023016
  C        -3.5084303145        8.0099319443       17.8620088440
  H        -4.7399801838        9.7808114855       16.5582756892
  H        -6.4109065358       10.5146257269       15.3353067452
  H        -0.9494253673       10.2197322036       17.1864421985
  H        -1.4497565180       10.8303376418       19.4619450299
  H        -3.1526467235        9.6949121315       20.8490282104
  H        -4.6502318298        7.9138496667       19.7075075835
  H        -4.2610112246        7.2899397146       17.3604148357
  C        -1.2863652998        7.9602742986       13.3872275678
  C        -0.3262085523        7.1926288013       12.6941399207
  C         0.7426688193        6.5831681760       13.3416137078
  C         0.7746570650        6.5883021477       14.8469636719
  C        -0.3048224633        7.1665568285       15.5558036562
  C        -3.3020081356        9.2729541295       13.3938738529
  C        -2.2322335070        8.7095873332       12.6769626381
  C        -2.0922467152        9.0657000578       11.1710901124
  C        -1.0863644734       10.0000661003       10.8167617151
  C        -0.9684780545       10.2403341495        9.4295132485
  C        -1.7833598230        9.5855609449        8.5256721270
  C        -2.8273125052        8.7500923698        8.8922453565
  C        -3.0000212593        8.5136480072       10.2791104947
  H        -3.7119101506        7.7811269397       10.6999551227
  H        -3.5422549518        8.3933771811        8.1995443588
  H        -1.7160501140        9.8177561994        7.4700694344
  H        -0.2808304444       11.0008595160        9.0059568653
  H        -0.4333253254       10.4677497322       11.5284047265
  C        -4.3625771623        9.9798863396       12.6984017590
  C        -5.5422598346       10.3057943711       13.3208555341
  H        -6.3994738346       10.6655902881       12.7727407307
  H        -4.3150994415       10.1713469893       11.6269551638
  C        -0.4077341124        6.8699610852       17.0630992644
  C        -1.0887711012        5.6876305507       17.3542768333
  C        -0.8932808161        5.0400052665       18.6005558899
  C        -0.1786883153        5.7137055559       19.6002263870
  C         0.4672492797        6.9029115068       19.2762585841
  C         0.3553221093        7.4900897440       18.0324349222
  H         0.8321387021        8.4522573872       17.8660216545
  H         0.9629489838        7.4146611360       20.1259229238
  H        -0.1121661506        5.3767514844       20.6610796008
  H        -1.2655351594        4.0086665246       18.7829941988
  H        -1.5693642574        5.1627914643       16.5865146998
  C         1.9114228914        6.0092689833       15.4958938977
  C         2.8960869936        5.3765119681       14.7998245342
  C         2.8400850388        5.3946137499       13.3536529535
  C         1.8231938753        5.9580132503       12.6799663688
  H         1.8804769804        5.8717228238       11.6308243691
  H         3.6322275044        4.8992230545       12.8200357515
  H         3.7894732658        5.0334930025       15.3169569601
  H         1.8725457966        6.1645703387       16.5872114244
  C        -0.4099321877        6.7922663006       11.2441349445
  C        -1.2766892971        5.7558233771       10.7613558437
  C        -1.1732272876        5.3631470564        9.4292511513
  C        -0.2319436714        5.9415372790        8.5708521154
  C         0.5943490955        6.9959530703        9.0309223010
  C         0.4386214259        7.4448383464       10.3737182264
  H         1.0703887637        8.3230027790       10.6719673193
  H         1.3620201809        7.4242437204        8.3724169231
  H        -0.1924858246        5.5118636329        7.5882111453
  H        -1.7982576333        4.6071415619        9.0299910423
  H        -1.9378198968        5.3314798309       11.5322126361
