140

  C         0.6371485027        0.9841183678       15.0370683035
  C         1.7576117278        1.7262606227       15.7629438034
  C         2.7982806735        2.2350353001       15.0039150005
  C         3.9093093214        2.8241070819       15.6237626473
  C         4.8721665428        3.5000580955       14.9199528776
  C         1.6619565677        2.1906770729       17.2135482271
  C         0.7475981995        3.1482428155       17.5604383208
  C         0.7263642812        3.6284876575       18.8734870008
  C         1.6015262425        3.2328618886       19.8605232634
  C         2.5750312602        2.2158207748       19.5313501525
  C         2.5183549446        1.6876845226       18.2417909007
  H         4.0440103438        2.9754231123       16.6933611564
  H         5.7564318899        3.8884533833       15.3838549056
  H         0.0594850194        3.4940521156       16.8092095384
  H         0.0023983099        4.3924937735       19.1152688520
  H         1.6214485786        3.6565618998       20.8779328654
  H         3.2210849122        1.8209182269       20.3621329931
  H         3.1165848556        0.7872225959       18.0972576028
  C         0.6352861429        0.9808639053       13.5369547667
  C        -0.4333039710        0.1360379096       12.9453924362
  C        -1.5120528354       -0.3275890181       13.7008223844
  C        -1.5335005087       -0.1887742385       15.1376251227
  C        -0.3671715353        0.2998281099       15.7573222593
  C         2.6430913480        2.3608395154       13.5175787785
  C         1.5638814510        1.7488715502       12.8127726839
  C         1.4835854084        2.2231165161       11.3456079864
  C         0.7317294629        3.2612473588       10.7889627420
  C         0.9576497893        3.8204226920        9.5086312323
  C         1.9083665672        3.2670406123        8.6846433517
  C         2.7079294208        2.1315513215        9.1691516302
  C         2.5160476562        1.6376413827       10.4920821325
  H         3.1933863657        0.8172968597       10.8194993086
  H         3.5479638544        1.7330677582        8.5724638380
  H         2.0093125624        3.6320618334        7.6583063018
  H         0.2931929742        4.6603997267        9.3388390505
  H         0.0135945133        3.8527657659       11.4365427024
  C         3.6929859811        3.1054022052       12.8348414677
  C         4.7544357650        3.6653124452       13.5272357405
  H         5.5482111878        4.2034492568       12.9779913252
  H         3.6330119032        3.4197552548       11.7795737484
  C        -0.2338297537        0.0490080806       17.2435446970
  C         0.5731296145       -1.0556301210       17.6603813431
  C         0.8148461086       -1.2449446307       19.0202285678
  C         0.0737924817       -0.6215985377       20.0120763451
  C        -0.8791424246        0.2890482126       19.5578676793
  C        -0.9969981238        0.6734363586       18.2755630823
  H        -1.7054633854        1.4618543539       17.9104196694
  H        -1.5722462831        0.7785380679       20.2244831280
  H         0.0983245225       -0.8298121076       21.0533946615
  H         1.7264416389       -1.8902191812       19.3227334508
  H         1.0233933931       -1.6343186860       16.8601879762
  C        -2.5261941171       -0.8536939913       15.8491801625
  C        -3.4835802816       -1.6601803388       15.2273102439
  C        -3.4719393102       -1.9067474512       13.8318610482
  C        -2.4975060701       -1.1979769115       13.0919495604
  H        -2.6292068300       -1.2718952168       11.9970285513
  H        -4.2855598749       -2.3754240690       13.2429399647
  H        -4.2107291841       -2.2213316614       15.7605667432
  H        -2.5003805414       -0.7311127296       16.9155432140
  C        -0.3720616492       -0.1641623932       11.5134946273
  C         0.7614299802       -0.9047178573       11.0064399165
  C         0.8365287289       -1.3342264771        9.7043537612
  C        -0.0993773880       -0.8364114477        8.8335242313
  C        -1.1091414152        0.0632084431        9.1727821055
  C        -1.2944919074        0.2394740709       10.5567609443
  H        -2.2064276807        0.7907021129       10.9434029689
  H        -1.7353620318        0.5091661807        8.4048453931
  H         0.0684655226       -1.1658865688        7.8029925106
  H         1.6274698279       -2.0342825649        9.3814390829
  H         1.5359902102       -1.3039047134       11.6992044000
  C        -2.7831206435        8.1511353406       14.8828997569
  C        -3.7769992125        8.9322712426       15.5516488171
  C        -4.9572619552        9.3452042166       14.8042263412
  C        -6.0177266791        9.9862737030       15.5459848466
  C        -7.0842842616       10.5802673539       14.8887637159
  C        -3.6218506303        9.3420585897       17.0359146092
  C        -2.7430995954       10.3623225978       17.3506017353
  C        -2.5091748929       10.7655621819       18.7207433182
  C        -3.3302227394       10.2879154770       19.7602067885
  C        -4.3723807191        9.4192980186       19.3651814172
  C        -4.4700104236        8.8914925676       18.0954796524
  H        -5.9560377117       10.0940636105       16.6598084361
  H        -7.9534096630       10.9595692291       15.3889423478
  H        -2.1623652644       10.8824343724       16.5837697809
  H        -1.8384662542       11.5606469565       19.0378393389
  H        -3.2467604887       10.6042408847       20.8273465210
  H        -5.0591662217        9.1839908120       20.1841429746
  H        -5.1421546236        8.0768893461       17.9577780935
  C        -2.7717320887        8.0738315753       13.3415097419
  C        -1.6537019930        7.4154706949       12.6991170532
  C        -0.5976074268        6.9387124051       13.5148559166
  C        -0.6500008092        6.8753155565       14.9740581335
  C        -1.7872029080        7.4887832356       15.6067792677
  C        -4.9671150385        9.3399673144       13.3568226121
  C        -3.8868287790        8.7062374869       12.7203203332
  C        -3.6767988635        9.0967854842       11.2107732507
  C        -2.7569838021       10.1651880747       10.9511736947
  C        -2.7178872244       10.8031211611        9.7118818377
  C        -3.6251134801       10.4510856859        8.6958267469
  C        -4.5202979839        9.3810667691        8.9678999942
  C        -4.5498495152        8.6466961485       10.1591450644
  H        -5.1745792536        7.7093755079       10.2588308483
  H        -5.2298472603        9.1748013344        8.2020352660
  H        -3.6265738589       10.8553826726        7.7043891970
  H        -1.9796330968       11.5176823578        9.4336971734
  H        -2.1032689472       10.4985125123       11.7923702305
  C        -5.9826372720       10.0813011188       12.7416312412
  C        -6.9917085081       10.6938808355       13.4705293784
  H        -7.7540977105       11.2505633963       12.9705677022
  H        -6.0553295000       10.1450378448       11.6355103809
  C        -1.9071195853        7.1344181190       17.1235050375
  C        -2.9341063322        6.2358474293       17.4743876744
  C        -2.9923754586        5.7839268237       18.7904248390
  C        -2.1704181152        6.3595231989       19.8227264975
  C        -1.2242053201        7.3240123952       19.4485373790
  C        -1.0696629544        7.7044541403       18.0881399524
  H        -0.3586619762        8.5664892049       17.8414812483
  H        -0.6914209761        7.9710259135       20.1017198689
  H        -2.3611435265        6.0818842152       20.8497051550
  H        -3.6196743969        4.9730845639       19.0843112141
  H        -3.5041459197        5.7956916078       16.6618365163
  C         0.3756475898        6.1787415915       15.7732912447
  C         1.4781736978        5.6205623542       15.1936515754
  C         1.6271475199        5.8224193207       13.6895935294
  C         0.6428655070        6.4378879734       12.9647964573
  H         0.8179152369        6.5746557506       11.8842106330
  H         2.4613946402        5.4195362101       13.1387762358
  H         2.1441927208        4.9457437059       15.6968434062
  H         0.2745289742        6.0452001051       16.8260044639
  C        -1.6736594860        6.9759667210       11.2374424541
  C        -2.5705886709        6.0345816673       10.8711634295
  C        -2.6192094023        5.5401996490        9.5509973423
  C        -1.7980153238        6.1459224506        8.6186702149
  C        -0.9179293541        7.1629099169        8.9783540268
  C        -0.8223349900        7.5455426794       10.3061418900
  H        -0.4055045325        8.5278700553       10.4543879825
  H        -0.4596925885        7.6513694390        8.1638945449
  H        -1.9358898545        5.8938889664        7.5602293272
  H        -3.3370604129        4.7342296657        9.3483488319
  H        -3.1760874745        5.5085272506       11.6121974690
