140

  C         4.4850407083       -1.0443932312       14.1475125787
  C         5.4931624199       -0.3067291846       14.8584653475
  C         6.5765153112        0.1868311531       14.0963754138
  C         7.7712370946        0.7342603562       14.7410922023
  C         8.9020483234        1.1731907432       14.0852380481
  C         5.3718028020        0.0121554699       16.2838870539
  C         4.4731794190        1.0219087942       16.6887935494
  C         4.5136865999        1.5364463219       18.0301950688
  C         5.4436060053        1.0070279487       18.8946050195
  C         6.3814466991        0.0132372823       18.5075012562
  C         6.3418482158       -0.4429993955       17.2243205543
  H         7.7664605417        0.8568199666       15.8532257706
  H         9.7629912977        1.6749243227       14.5128221486
  H         3.7325575425        1.3426635199       15.9422235444
  H         4.0567052413        2.4333857560       18.2757035189
  H         5.5152917083        1.4760838254       19.8492248318
  H         7.0913195014       -0.3715899300       19.1613221582
  H         7.0363472698       -1.2132129459       16.8815809323
  C         4.4592983951       -1.0403021719       12.6648893151
  C         3.4272681788       -1.7317208865       11.9196162122
  C         2.3735491775       -2.3001400774       12.6345313741
  C         2.4583180865       -2.4310425432       14.0685261191
  C         3.4900615955       -1.8174507604       14.7642830865
  C         6.6838832845       -0.0033799128       12.6551572314
  C         5.6152566519       -0.5785717444       11.9425498771
  C         5.6398641507       -0.2871806459       10.4722758423
  C         5.0292116930        0.8455053243        9.8935457204
  C         5.1243177632        1.1607674500        8.5733575431
  C         5.6860793460        0.2745571145        7.7009528554
  C         6.4777743199       -0.7274460559        8.2525885588
  C         6.3803438638       -1.0499238021        9.5959998295
  H         6.9702471829       -1.8672529674       10.0195346216
  H         7.0873415465       -1.4012850841        7.6749237114
  H         5.5652215822        0.4618381726        6.6407732282
  H         4.6254235080        2.0615868751        8.0601342007
  H         4.4343677966        1.5174349855       10.4662545924
  C         7.8638172430        0.4607109907       11.9647851248
  C         8.9510442738        0.9731655731       12.6520147616
  H         9.8258424918        1.2751408300       12.0513783821
  H         7.9780426077        0.2207267039       10.9183584724
  C         3.6221508484       -2.0884380734       16.2103578775
  C         4.5984383578       -3.0756105824       16.6006829035
  C         4.6745227932       -3.4599905605       17.9853329319
  C         3.8347064969       -2.9071777066       18.9812758598
  C         2.7449806654       -2.1616357344       18.5456727404
  C         2.6401958243       -1.6949027513       17.2166255985
  H         1.9154377084       -0.9673800717       16.9936312593
  H         1.9743925001       -1.7838438769       19.2643259372
  H         3.9156651009       -3.1248920011       20.0504142386
  H         5.4153169335       -4.1823461780       18.4479008919
  H         5.1130525413       -3.7712228870       15.8458800623
  C         1.5220406931       -3.2194637574       14.7427714639
  C         0.3936674520       -3.7594549692       14.1920894749
  C         0.1353895169       -3.4323449748       12.8444615190
  C         1.1462818646       -2.7837185088       12.0827950989
  H         0.8902228034       -2.7167077484       10.9886746298
  H        -0.7394949306       -3.6774721666       12.2160926953
  H        -0.1236268542       -4.5024118326       14.8853163792
  H         1.6928954217       -3.4210444156       15.7946621469
  C         3.6885064184       -2.2313161013       10.5859793725
  C         4.3452822547       -3.4453115987       10.4269045759
  C         4.5108986389       -4.0718016087        9.2282818573
  C         3.9444349167       -3.5382207316        8.0320400457
  C         3.2498355809       -2.3354982885        8.1459683466
  C         3.1360676785       -1.6942945648        9.3884288959
  H         2.6000683827       -0.7619215315        9.4068694949
  H         2.6998313743       -2.0015048031        7.2623547678
  H         3.9008697367       -4.0437181684        7.0454673424
  H         4.9938416048       -5.0117869176        9.1818274011
  H         4.7801624332       -3.8901987182       11.3449221025
  C         0.9192493139        6.0771286743       13.7141906296
  C        -0.0811816189        6.7693305994       14.4557968729
  C        -1.1821304994        7.3592909405       13.7734801410
  C        -2.2375937837        8.1650787488       14.3565582946
  C        -3.1635712249        8.8707612836       13.6297584771
  C         0.0820635504        7.1185892223       15.9034548867
  C         1.0665900904        8.0435127724       16.2180977550
  C         1.2769060406        8.5437196417       17.6064280201
  C         0.4897581675        8.0930365003       18.6442997799
  C        -0.6354099417        7.2336837564       18.2588816897
  C        -0.8252956007        6.8003026619       16.9809298941
  H        -2.3657865007        8.1151578678       15.4658954279
  H        -3.9646916163        9.3609472850       14.2154787405
  H         1.6752192862        8.4960894755       15.4388701979
  H         2.0356119153        9.2389750711       17.8153875505
  H         0.5311091029        8.4159276892       19.6644448747
  H        -1.3020357508        7.0126385741       19.0226718196
  H        -1.6701806373        6.1289652307       16.7728740401
  C         0.8991170678        6.1688957603       12.2643040119
  C         1.9841130684        5.4976647965       11.5062950740
  C         3.0713268058        4.9824801299       12.1992627134
  C         3.1383545036        4.9251228489       13.6223145604
  C         2.0280564794        5.4317902554       14.3816553038
  C        -1.2321459892        7.4364900145       12.2507691135
  C        -0.1315128092        6.8455217673       11.5670130986
  C        -0.0769446294        7.1237136638       10.1507890011
  C         0.7365491737        8.2037015219        9.6920182626
  C         0.6778130856        8.7314576399        8.3709474071
  C        -0.2353910222        8.1411680376        7.4586779167
  C        -1.1392580813        7.1334050270        7.9364952945
  C        -0.9691253059        6.5584529069        9.1781584611
  H        -1.6472537443        5.7586173549        9.5022844548
  H        -1.8937188784        6.6770433102        7.2570046024
  H        -0.3927125856        8.5908069465        6.4763435962
  H         1.2616089366        9.6656105819        8.1397280102
  H         1.4538509002        8.6284521958       10.4450180438
  C        -2.2176216922        8.2136951201       11.5663876112
  C        -3.1920953197        8.9176091739       12.2197990931
  H        -3.9256464292        9.4892925545       11.7674373474
  H        -2.1590522926        8.2714864963       10.4333144598
  C         1.9598273918        4.9373809143       15.8748792143
  C         1.0454135370        3.9734957420       16.2688997472
  C         1.0049388278        3.5750174103       17.5662786867
  C         2.0302739675        3.9564309293       18.4561030568
  C         3.0275058417        4.8328110822       18.0594920617
  C         2.9429500037        5.3467686199       16.7153675136
  H         3.6725241082        6.1107382382       16.3601990320
  H         3.8853294124        5.0280208843       18.6918636911
  H         2.0650384087        3.5334363548       19.4176779499
  H         0.3065462708        2.7319288994       17.8174529649
  H         0.3525470874        3.5867212174       15.5296690818
  C         4.2657508290        4.2292202617       14.2418694399
  C         5.2906235015        3.6884748055       13.5032633611
  C         5.2906015015        3.8528923020       12.0717951646
  C         4.2195613850        4.4567723099       11.4888629853
  H         4.2212382780        4.5902813098       10.4326266259
  H         6.0771046364        3.5525166646       11.3769967258
  H         6.1973090354        3.2370210134       13.9248196023
  H         4.2448212696        4.2748191776       15.3505435211
  C         2.0329928186        5.1949118509       10.0060602645
  C         1.4510583250        3.9607269635        9.6880635486
  C         1.6334210362        3.3956344970        8.4032428299
  C         2.4303730708        4.0534732354        7.4144925432
  C         2.9929878160        5.2947897174        7.7708106639
  C         2.8552126491        5.8149288936        9.0982021879
  H         3.2724285855        6.7859524046        9.4482388388
  H         3.6434484709        5.8542888785        7.0675602840
  H         2.4340270625        3.7085829797        6.3838628482
  H         1.2078674751        2.4373301779        8.2150903331
  H         0.8967516517        3.4417694922       10.4373934340
