140

  C         2.0656114597        0.6900339707       14.8250467873
  C         3.2168302762        1.2367571346       15.5367236233
  C         4.3845389816        1.6797050458       14.8869375880
  C         5.4420233544        2.2637910282       15.6401432594
  C         6.5485820438        2.7872647388       14.9454764452
  C         3.0331857899        1.5967917430       17.0548804798
  C         2.2123956121        2.6355062052       17.4749732001
  C         2.1552328972        2.9921297507       18.8316660726
  C         2.9339700230        2.3032927526       19.7561938025
  C         3.8434416826        1.3216983146       19.3092708461
  C         3.8269595922        0.8698199657       17.9570812489
  H         5.2727536908        2.2625069792       16.6998870604
  H         7.2436080408        3.3720137485       15.4954030459
  H         1.7196064048        3.2524113543       16.7538630450
  H         1.5372327938        3.8397373582       19.1789326182
  H         3.0792614860        2.6260971671       20.7721530316
  H         4.5978104853        0.9777214805       19.9665035606
  H         4.4482932368        0.1363065147       17.4448385229
  C         2.1878677446        0.6188996380       13.3472760923
  C         1.1219660458        0.0272473565       12.6010489403
  C         0.0372824259       -0.5374071740       13.2753775340
  C         0.0018167459       -0.5647425895       14.7463580075
  C         1.0730051530       -0.0888533318       15.5751181703
  C         4.3851546771        1.7846719161       13.4103917236
  C         3.2415692000        1.3461144528       12.7284051215
  C         3.0750155372        1.8171911725       11.2417196012
  C         2.1412866941        2.8232413577       10.9800985863
  C         1.9887781512        3.4142781161        9.7039224969
  C         2.8489817747        3.0151406354        8.6789432065
  C         3.7848090913        2.0187610294        8.9038461215
  C         3.9080271286        1.3964331417       10.1577165287
  H         4.6246436140        0.6152963615       10.3695244262
  H         4.4465992878        1.8810274718        7.9814121439
  H         2.6087931556        3.3811546130        7.6861536098
  H         1.2606535127        4.1648583787        9.5260900377
  H         1.5032695747        3.2052309028       11.8129043061
  C         5.5012615405        2.3382826333       12.7993686591
  C         6.6228771115        2.7175828859       13.5103734036
  H         7.4468318738        3.2979206399       13.0290409096
  H         5.4411106328        2.3828098550       11.6795095204
  C         1.1812714664       -0.5819209761       16.9623438593
  C         2.0886067248       -1.6193366175       17.3222044598
  C         2.0999679875       -2.1097734131       18.6670217166
  C         1.0899182879       -1.6354622969       19.6056354434
  C         0.2069042415       -0.6037231273       19.2461644028
  C         0.3410874064        0.0153024335       17.9896153162
  H        -0.3003182966        0.8619154286       17.6995458205
  H        -0.3785462982       -0.2032585964       20.0789834369
  H         1.0843945510       -2.0166083599       20.6917890175
  H         2.6773548061       -3.0313912555       18.8721527680
  H         2.7864038947       -2.0195191087       16.5878665279
  C        -1.0052345318       -1.4562340717       15.2606785895
  C        -2.0360494212       -1.9886493937       14.5691095016
  C        -2.1448704365       -1.7717058431       13.1382206249
  C        -1.0855257811       -1.1764075659       12.5422416784
  H        -0.9145720796       -1.2493612475       11.4454382115
  H        -3.0009555280       -2.0840579601       12.6005777802
  H        -2.6933037954       -2.5651325854       15.2392216645
  H        -0.9840856501       -1.6716666661       16.3155026957
  C         1.2507870889       -0.2540998564       11.1360657830
  C         1.9376226258       -1.4016127164       10.8049529672
  C         1.8785229451       -1.8310245992        9.4783496895
  C         1.1964729866       -1.1217934892        8.4601005883
  C         0.3042239856       -0.0960076942        8.8518547692
  C         0.3697275820        0.3322400098       10.1478399380
  H        -0.3662022569        1.0692116016       10.5237230623
  H        -0.4266098109        0.3650590452        8.1214543863
  H         1.1455769296       -1.5169871710        7.4650906062
  H         2.4567768075       -2.6807603103        9.2406871898
  H         2.5118142414       -1.9569656430       11.5696463788
  C        -1.3516184604        7.7648353579       14.8632452387
  C        -2.4877805901        8.4101925853       15.5587046107
  C        -3.5394059718        9.0124147976       14.8834778824
  C        -4.5038102790        9.7760928721       15.5795960407
  C        -5.4734868550       10.4839836905       14.9134311284
  C        -2.3826941995        8.8602560453       17.0150826120
  C        -1.4568451247        9.9527166450       17.2487883616
  C        -1.2668951279       10.4301225480       18.5297493315
  C        -1.9835834375        9.9187010911       19.5875726091
  C        -2.7932049701        8.8286308963       19.3879380886
  C        -2.9261296853        8.2596729885       18.1256284551
  H        -4.6355470928        9.6747550663       16.6358148602
  H        -6.2560436219       11.0908487462       15.3898973042
  H        -0.9526498933       10.3222509472       16.3999186392
  H        -0.5340081368       11.2725528206       18.7871678699
  H        -1.8593804020       10.1375241035       20.6291125727
  H        -3.4318246053        8.4262766349       20.1620221275
  H        -3.6359367332        7.4775198383       17.9104190490
  C        -1.3768423763        7.8215537825       13.3617252844
  C        -0.4973311191        7.0077269883       12.6566033698
  C         0.5948302650        6.4146639811       13.3499001642
  C         0.7136033034        6.5507233037       14.7395073566
  C        -0.3105713115        7.0562225227       15.5482993977
  C        -3.4494345234        9.1213348874       13.4376013490
  C        -2.3793464423        8.5657882770       12.6977222570
  C        -2.3282951063        8.9101323713       11.2338697570
  C        -1.5504949719       10.0147611845       10.7497609905
  C        -1.5165019002       10.3755747277        9.4139703133
  C        -2.3023919467        9.7200669675        8.5027089070
  C        -3.0831977779        8.6320604854        8.9550902186
  C        -3.1438165626        8.2398440550       10.2894765972
  H        -3.7296678807        7.3604909029       10.5787364254
  H        -3.7207206560        8.1341367229        8.2348482969
  H        -2.2692754055        9.9012618310        7.4043317937
  H        -0.8481840003       11.1926944624        9.1004365806
  H        -0.9155357722       10.6063768062       11.4252808030
  C        -4.5618672406        9.7338277770       12.7596281391
  C        -5.4603815880       10.5062254694       13.4973337051
  H        -6.3051453702       11.0044441539       13.0755475614
  H        -4.6098413804        9.6632123063       11.6929017642
  C        -0.4065184418        6.6304219576       17.0073081004
  C        -1.2913170740        5.6294998008       17.3966712186
  C        -1.3234976651        5.2415432788       18.7327722904
  C        -0.4574003265        5.7927447146       19.6384897964
  C         0.4871003657        6.8082248724       19.2382108939
  C         0.5499957477        7.1762378314       17.9112689971
  H         1.1783497055        7.9845423806       17.5430375244
  H         1.1920521785        7.0616947895       19.9925081495
  H        -0.5413572023        5.5109248604       20.7150541751
  H        -2.0579458425        4.4559141172       19.0407902812
  H        -1.9922271949        5.2056014415       16.6118299424
  C         1.7580400619        5.8409677497       15.4813285504
  C         2.7782631432        5.2685235722       14.7516265519
  C         2.7214009128        5.2115693687       13.3335508476
  C         1.6958705190        5.8155567303       12.6073246421
  H         1.6979408455        5.7778071262       11.5045629924
  H         3.5407608689        4.7506746112       12.7683381583
  H         3.4658536470        4.5587576834       15.1918289406
  H         1.6787234525        5.7073685640       16.5398933840
  C        -0.5391597770        6.7574432823       11.1717486539
  C        -1.1547487453        5.5475469998       10.6230341462
  C        -1.0458515701        5.3180206503        9.2682170712
  C        -0.3375404945        6.1943372794        8.3882667933
  C         0.3379930920        7.2683639000        8.9592576272
  C         0.2829802728        7.5396478481       10.3160712382
  H         0.7332797761        8.4551502736       10.6391323552
  H         0.9391229269        7.8528866575        8.2796520094
  H        -0.2065425240        6.0046073524        7.3667043504
  H        -1.5005210630        4.3355596660        8.8762438240
  H        -1.7667263163        4.9604419999       11.2597711625
