140

  C         3.1135111294        0.2837826806       14.6739228256
  C         4.2365192333        1.0453810613       15.3566744380
  C         5.3754757620        1.4564885216       14.6038319252
  C         6.6040312852        1.8545210535       15.1903624853
  C         7.6089584633        2.3832065444       14.4606575297
  C         4.1375994742        1.4417773231       16.8578142832
  C         3.0633640922        2.1791855229       17.3135359923
  C         2.9016250811        2.4723332318       18.6728438593
  C         3.8864600099        2.1871982065       19.6130039763
  C         4.8967011947        1.3468328201       19.1249169604
  C         5.0029743210        0.9446676346       17.8569960904
  H         6.7346595836        1.7143253774       16.1853281014
  H         8.5618017881        2.6434310595       14.9162925719
  H         2.2565017841        2.5293498859       16.6385397039
  H         1.9461651219        2.9334010523       18.8981905842
  H         3.8073617208        2.5048069512       20.6943400113
  H         5.7115390348        1.0349778950       19.7740597023
  H         5.8170257219        0.2521427962       17.6685135543
  C         3.0698210147        0.3592328655       13.2100254056
  C         2.1228797677       -0.5081502628       12.5568658431
  C         1.1045644133       -1.1518860738       13.3120650987
  C         1.1078695734       -1.0938033718       14.7741123247
  C         2.1826440384       -0.4283279914       15.4068151460
  C         5.2531271487        1.5096390460       13.1811200463
  C         4.0945464564        1.0190326685       12.5058474259
  C         4.0551924214        1.3230461114       11.0290069473
  C         3.4393554361        2.4857473034       10.5484114535
  C         3.5403772475        2.8025421421        9.2075410857
  C         4.3273187973        2.0469981041        8.3216290943
  C         5.0414000878        0.9062986817        8.7798882665
  C         4.8661282425        0.5797711410       10.1600677008
  H         5.4291599380       -0.1829407528       10.6662117138
  H         5.4915429697        0.2061750284        8.0773299375
  H         4.3382840634        2.3005247551        7.2813951980
  H         3.0361049253        3.6563857345        8.7460689133
  H         2.8783763180        3.1549376803       11.2160867524
  C         6.3705664554        2.0281307649       12.4113072908
  C         7.5102659554        2.4683497902       13.0618535510
  H         8.2687530965        3.0276765861       12.4938210277
  H         6.3318436628        2.0913264109       11.3079491339
  C         2.4010206339       -0.7950800439       16.8301537444
  C         3.4044330347       -1.7184209497       17.1297733591
  C         3.4681333080       -2.3222717296       18.4120050011
  C         2.4692310039       -2.2042755779       19.3425630111
  C         1.5227063919       -1.1934535281       19.1361651333
  C         1.4695241694       -0.5087487141       17.9250458739
  H         0.7258412428        0.2722129043       17.7351056907
  H         0.7102692501       -0.9666426810       19.8796849349
  H         2.4070619420       -2.8932175768       20.2621578879
  H         4.2550415485       -3.0454219779       18.6960756990
  H         4.0821441695       -2.0207358788       16.3409378470
  C         0.0718154507       -1.8497887375       15.4744909239
  C        -0.9500880352       -2.4005739692       14.8061248081
  C        -1.0128654074       -2.3698316051       13.3415822879
  C        -0.0048252511       -1.8439020403       12.6093652235
  H        -0.1257901121       -1.8089270083       11.5628387240
  H        -1.8509302040       -2.9831160824       12.9204755019
  H        -1.8029344959       -2.8322581569       15.3079310603
  H         0.0145938797       -1.8784984807       16.5902344925
  C         2.1709993781       -0.8156685787       11.0809153310
  C         2.9879922797       -1.8791871160       10.6043911935
  C         3.1860345169       -2.0793932532        9.2267227370
  C         2.3235505349       -1.3565661562        8.2993286329
  C         1.3418694046       -0.4976958135        8.7780593680
  C         1.3514661057       -0.1731575134       10.1581621427
  H         0.6420891908        0.5415025699       10.4951855775
  H         0.6053644557       -0.0293749814        8.0755287760
  H         2.4310391276       -1.4565280372        7.2405976287
  H         3.9106456984       -2.7680585201        8.9826931704
  H         3.5153738237       -2.6016421062       11.2629848014
  C        -0.4776802525        7.3730797886       14.8048093034
  C        -1.5929391460        8.0247373041       15.4465678989
  C        -2.6484162529        8.5373538804       14.7220059709
  C        -3.6917048292        9.3193956668       15.3280220757
  C        -4.6848485029        9.8177168479       14.5630811873
  C        -1.4176884264        8.3526028034       16.9021085393
  C        -0.4563176121        9.2777184708       17.3636107628
  C        -0.5277050948        9.7028513419       18.6801140432
  C        -1.3937202471        9.1316758481       19.6184323030
  C        -2.3029777632        8.1552875996       19.1473992826
  C        -2.3610247917        7.8351803257       17.7784464953
  H        -3.7655661640        9.3339623208       16.4067284532
  H        -5.5272918211       10.3829418823       15.0201564828
  H         0.3173754987        9.7417426139       16.7945124422
  H         0.2229984975       10.4590598777       18.9185220525
  H        -1.3276527797        9.4032420931       20.6880261362
  H        -3.0645398171        7.7338185553       19.8153819288
  H        -3.1504447715        7.2091152006       17.3972202490
  C        -0.4243580940        7.3709067619       13.2896505854
  C         0.6525062036        6.6811156815       12.5905392903
  C         1.7313491381        6.0886086122       13.3259594982
  C         1.6071209308        6.0223960799       14.8018198362
  C         0.5302625546        6.6056826080       15.5082024449
  C        -2.5051047238        8.6521042706       13.2574664427
  C        -1.4284194197        8.0978116833       12.6135174706
  C        -1.3437384825        8.3828558631       11.1825743683
  C        -0.8146739599        9.5564371864       10.6710915460
  C        -0.8909879479        9.7925215159        9.2819559449
  C        -1.6531638642        8.9632223128        8.4936479136
  C        -2.3255107665        7.9103314530        9.0483988071
  C        -2.0706083939        7.5120648928       10.3602126512
  H        -2.5340987230        6.6181328072       10.7648136738
  H        -3.0699052021        7.3991191564        8.4373405619
  H        -1.8097124342        9.2839115682        7.4409635990
  H        -0.4923350363       10.7428713559        8.9225674290
  H        -0.1928909479       10.2439087625       11.2878348188
  C        -3.5415816468        9.3030203001       12.5285301531
  C        -4.6542800082        9.8151008259       13.2032211952
  H        -5.4728372407       10.2926500807       12.6992715342
  H        -3.4879845751        9.2863620652       11.4408342316
  C         0.3641358341        6.1836230485       16.9703897169
  C        -0.4517887961        5.1161423116       17.4078203472
  C        -0.4362491542        4.6190063257       18.7374049065
  C         0.4034114596        5.2488233686       19.7038499027
  C         1.0860266608        6.4082394534       19.3672157592
  C         1.0990255169        6.8060782192       18.0328362925
  H         1.8296584745        7.5577459945       17.7204641893
  H         1.7934063715        6.8884779404       20.0332608693
  H         0.5228076494        4.8045386350       20.7319760671
  H        -0.9389843309        3.6407002112       18.8867483011
  H        -0.9909682740        4.5827806669       16.6256033739
  C         2.5962744968        5.2313318260       15.4765634273
  C         3.7180336660        4.6541401267       14.8140331490
  C         3.7987148039        4.8439423716       13.4155748467
  C         2.8351829568        5.4531447098       12.6762427498
  H         2.8235868723        5.4956685791       11.5673317747
  H         4.5723967834        4.2929088484       12.8542807388
  H         4.3958702711        3.9678155550       15.3351340578
  H         2.3558025473        5.0731009198       16.5254923276
  C         0.6297137517        6.4266857676       11.1406509970
  C         0.0215647925        5.2191707295       10.7948766661
  C        -0.0067529909        4.7460758844        9.4904583408
  C         0.6630945517        5.4701371860        8.5454163093
  C         1.3029258445        6.6764093944        8.8600161826
  C         1.2278996178        7.1926776201       10.1786912099
  H         1.6609726411        8.1512451691       10.4747801822
  H         1.8660219131        7.2299821346        8.1205044266
  H         0.7940627127        5.0665052534        7.5116993979
  H        -0.5575020758        3.8667160905        9.2319057291
  H        -0.4542688803        4.7112927465       11.5860218122
