140

  C         5.0535494041       -1.5879943577       13.9123141878
  C         6.0212831656       -0.9009023086       14.7039230943
  C         7.1609505812       -0.3421207886       14.0375816410
  C         8.2897574663        0.2694142255       14.7813420313
  C         9.1781189183        1.0259763427       14.1238607410
  C         5.9512396578       -0.5616968206       16.1401965697
  C         5.0604307267        0.4195202428       16.6156441086
  C         5.1339301664        0.9321948664       17.9151822425
  C         5.9732000153        0.3565515451       18.8528078818
  C         6.8506101006       -0.6788321591       18.4418475373
  C         6.8117493538       -1.1437071858       17.1102642145
  H         8.1610332744        0.1928907213       15.8668085813
  H         9.8979235474        1.6398734049       14.7471458086
  H         4.5301965526        1.0306802493       15.8434860442
  H         4.5937540110        1.8113653916       18.1177224680
  H         5.9850200753        0.7241876514       19.8963641417
  H         7.5693444344       -1.2081650616       19.0785758040
  H         7.5657757643       -1.8590545513       16.7923661387
  C         5.0652271504       -1.4681229407       12.4510426854
  C         4.0375337524       -2.0738388577       11.6969109510
  C         2.8572491101       -2.5844091351       12.3529051303
  C         2.8087592313       -2.6644657521       13.7720853169
  C         3.9429338116       -2.2415106448       14.5584892464
  C         7.1432282392       -0.2704623069       12.5999885510
  C         6.0836235900       -0.7212467344       11.8151003082
  C         6.0292789741       -0.3660885064       10.3858012743
  C         5.3611505742        0.7808877774        9.9611880237
  C         5.4271073346        1.2098221174        8.6355977257
  C         6.1707696636        0.5264160248        7.6742923497
  C         6.8547255105       -0.6389496948        8.0439349435
  C         6.8139477734       -1.0669700493        9.3704544061
  H         7.3410787211       -1.9819934822        9.6247865845
  H         7.4539425535       -1.2395520833        7.3660543775
  H         6.1185174277        0.7933381735        6.6024258303
  H         4.8034404381        2.0547208120        8.3249248169
  H         4.8560385779        1.4227345859       10.6787912036
  C         8.2146594579        0.5204590071       11.9561947007
  C         9.1527547781        1.1666479590       12.6778645259
  H         9.8813901097        1.7582580178       12.1802583962
  H         8.3152010684        0.4100238630       10.9187942885
  C         3.8493012740       -2.5141277827       16.0397532447
  C         4.6166279496       -3.5991782781       16.4765827404
  C         4.5059538429       -4.0791630335       17.8161547645
  C         3.6197855891       -3.4520560748       18.7322442927
  C         2.8239326224       -2.4788184550       18.1947310676
  C         2.8840368555       -1.9265828039       16.9083768443
  H         2.1968310041       -1.2526977894       16.4888867349
  H         2.0634917420       -2.0125384362       18.8459252735
  H         3.5306776124       -3.7743195985       19.7683466558
  H         5.1504440780       -4.9135197579       18.0754075210
  H         5.3326504324       -4.0998922200       15.7981483464
  C         1.6389657631       -3.2579315756       14.3496382595
  C         0.7047751595       -3.9776589185       13.6543981970
  C         0.6716984906       -3.8259447177       12.2762474843
  C         1.7108753307       -3.2165062154       11.6207399416
  H         1.6484582803       -3.1456629503       10.5339533476
  H        -0.2310406261       -4.2024591945       11.7761211437
  H        -0.1440928990       -4.4391591711       14.2305743872
  H         1.5813010871       -3.2975676447       15.4042499681
  C         4.0767824336       -2.3593224340       10.2289854524
  C         4.7598155706       -3.4906832305        9.7158665917
  C         4.7209743770       -3.8024568229        8.3533235741
  C         4.1061175666       -2.9159529553        7.4586889249
  C         3.4262827806       -1.8019052190        7.9393392253
  C         3.4519918706       -1.5411405748        9.3283781865
  H         2.8384304201       -0.6492497179        9.6291494106
  H         2.8396469135       -1.2261157794        7.2765359552
  H         3.9642275582       -3.0670160200        6.4084138883
  H         5.3142984155       -4.6769982893        8.0559701034
  H         5.3305059076       -4.1018315983       10.3872138114
  C         1.4130731774        5.6722620676       13.8611117725
  C         0.3623929646        6.3228425006       14.5498123302
  C        -0.7177997199        6.9006322548       13.8200884015
  C        -1.5906731024        7.7370456283       14.5134499872
  C        -2.6790830919        8.3014007401       13.8805634826
  C         0.4031783810        6.6381433692       15.9754671731
  C         1.2808241476        7.6654643818       16.3723823593
  C         1.2608512538        8.2125085801       17.6728630059
  C         0.2384291587        7.7737917465       18.5231813854
  C        -0.7002264974        6.7560930505       18.1435294080
  C        -0.5370479040        6.1574184366       16.8954179848
  H        -1.5135024325        7.7939489471       15.5586314155
  H        -3.4962341907        8.8657649233       14.4008639847
  H         2.0760155257        8.0567194865       15.7713225261
  H         1.9504132290        9.0618928792       18.0314556866
  H         0.1761955147        8.2690941007       19.4464604033
  H        -1.4851233458        6.3889864484       18.8324566628
  H        -1.3408022739        5.4929324346       16.6652516032
  C         1.4549345649        5.8375086095       12.3411111986
  C         2.5099368099        5.2594953713       11.6047991838
  C         3.6530646745        4.6471037668       12.2135975403
  C         3.6719527871        4.5617730734       13.6788153744
  C         2.5201107434        5.0372122796       14.4250403250
  C        -0.7839331294        6.8629389376       12.3386510634
  C         0.3630288518        6.3833656916       11.6683896037
  C         0.4900031003        6.8821654832       10.2464621320
  C         1.4742652174        7.8426392200       10.0306506603
  C         1.7689530323        8.4603374921        8.7877568393
  C         1.0325063169        8.0353917689        7.6761579739
  C         0.0099548542        7.0359984200        7.8283993794
  C        -0.2299091790        6.4637938713        9.0935463889
  H        -0.8207641595        5.5709252338        9.1751155045
  H        -0.5134395464        6.7324918376        6.8975664133
  H         1.2138340797        8.4588856203        6.7001765267
  H         2.5891925100        9.2420432698        8.6811253700
  H         2.0781853470        8.2097731283       10.9044185803
  C        -1.8615706554        7.5448450627       11.7488342015
  C        -2.7768946631        8.2660576425       12.4671438485
  H        -3.4632946351        9.0189673756       12.0945902324
  H        -1.9334800130        7.6591917750       10.6730301941
  C         2.5166330412        4.7289499923       15.9485485713
  C         1.7019984220        3.7051769891       16.3633406631
  C         1.6247093062        3.3661295079       17.7096112273
  C         2.5402865135        3.9822216787       18.5859886613
  C         3.4796717024        4.8772060846       18.1436619298
  C         3.4979895403        5.2212445162       16.8078383976
  H         4.2909192043        5.8318592386       16.4678212561
  H         4.2769035081        5.2374182638       18.8168974241
  H         2.4335801792        3.8956424870       19.6670445176
  H         0.9577694958        2.5526247000       17.9981223581
  H         0.9795521815        3.3442063663       15.6189814824
  C         4.6837662624        3.7585985301       14.3269307317
  C         5.7177933905        3.2114966612       13.5774283340
  C         5.6292820955        3.2246269803       12.1455826635
  C         4.6760718867        3.9911478656       11.4911141291
  H         4.6799736320        4.0530784123       10.3936182161
  H         6.3823489245        2.6995639249       11.5455830693
  H         6.5112947409        2.6106230887       14.0292727801
  H         4.6481819164        3.6456385100       15.4283046611
  C         2.5084093548        4.9347633114       10.1498129890
  C         1.8425187162        3.7553433573        9.6546394090
  C         1.9743168103        3.3403660501        8.3252398709
  C         2.7457370238        4.1175745189        7.4361388573
  C         3.5413676593        5.1844186674        7.8996478600
  C         3.3558631008        5.5952056075        9.2125774483
  H         3.9108538841        6.4952023186        9.5177170046
  H         4.0834311354        5.7706779233        7.2210847964
  H         2.7308885346        3.8952867949        6.3553033612
  H         1.3272846640        2.5378969495        7.8702293013
  H         1.1316183614        3.1722424844       10.2096827645
