140

  C        13.6590029615        0.2679687094        1.2509909499
  C        14.7552810083        0.9349275094        1.9883375692
  C        15.7877114135        1.5739576104        1.2783103783
  C        16.8553979580        2.3056502353        1.9487426452
  C        17.8399238795        2.8683978592        1.2594588131
  C        14.6726944098        1.2925201736        3.4316306389
  C        13.9174118669        2.3605082361        3.9153040373
  C        13.8788300063        2.7077675554        5.2191339146
  C        14.6193521293        2.0813776197        6.1979277823
  C        15.4005562688        0.9804086954        5.7876171753
  C        15.4281439217        0.5835260442        4.4348650073
  H        16.8224274911        2.3520067221        3.0175122623
  H        18.5874710371        3.5098323849        1.6644650005
  H        13.3207738286        2.8947948751        3.1780312541
  H        13.2464279305        3.5464267410        5.5322587451
  H        14.6187102329        2.2760288952        7.2398340910
  H        16.0252848424        0.4608763979        6.4823812614
  H        15.9150771556       -0.3412150559        4.0937640339
  C        13.6050586726        0.3184308632       -0.2347606412
  C        12.6554673169       -0.3919654491       -0.9841243727
  C        11.4886661532       -0.9569194106       -0.3223492221
  C        11.5470922780       -1.0124138393        1.1627846048
  C        12.6268920436       -0.4343731427        1.9012304488
  C        15.7806279558        1.5853152611       -0.1351429361
  C        14.6526087219        1.0242022522       -0.8096236626
  C        14.6120645602        1.4079071138       -2.2608949907
  C        13.8238773352        2.4895524904       -2.6263433124
  C        13.8266240526        2.9979566883       -3.9291486158
  C        14.5805777437        2.3967258567       -4.9338369992
  C        15.4484345606        1.4177630109       -4.4919306094
  C        15.4870062188        0.8715265857       -3.2207658055
  H        16.1556771936        0.0188476927       -3.0804997427
  H        16.1744094985        1.0634900628       -5.2457019148
  H        14.6586749428        2.6931701970       -5.9758762832
  H        13.1841394688        3.8933341025       -4.1403741420
  H        13.2710835678        3.0029198602       -1.8408802086
  C        16.8337049094        2.3322210201       -0.8814322370
  C        17.8860467497        2.8402305836       -0.2150353820
  H        18.5662823281        3.5180463443       -0.7211337536
  H        16.7953181718        2.5613732684       -1.9826181973
  C        12.5999683990       -0.8009806868        3.4428006218
  C        13.4682299567       -1.7866067608        4.0880443356
  C        13.1397681367       -2.2415297432        5.3736186466
  C        12.2370909758       -1.5695297495        6.1597227831
  C        11.5423373766       -0.5084465188        5.6250967931
  C        11.6999021416       -0.1396949341        4.2520716556
  H        11.1001320359        0.6409949373        3.8570445209
  H        10.7927893588       -0.0059948176        6.2794789816
  H        12.1424022192       -1.9060352101        7.2472267882
  H        13.8064305296       -3.0420868631        5.7511873005
  H        14.2935825025       -2.2176785790        3.5795511409
  C        10.4508137009       -1.7396462358        1.7977398691
  C         9.3915623568       -2.2610541805        1.1885626556
  C         9.2015938076       -2.0828114434       -0.2151678375
  C        10.2475631543       -1.5111935126       -0.9221859950
  H        10.1503465533       -1.2959842141       -1.9465537866
  H         8.3495451087       -2.4165325320       -0.8386752483
  H         8.7149724683       -2.9636798206        1.5976791398
  H        10.5182052436       -2.0026649309        2.8622463054
  C        12.7886328413       -0.7347133510       -2.4658467969
  C        13.6061481122       -1.7929107792       -2.7826175361
  C        13.6271298130       -2.2955859913       -4.0948254480
  C        12.7920160578       -1.7777749820       -5.1251673720
  C        11.9508476601       -0.7182971464       -4.7518807571
  C        11.9027174687       -0.2325198863       -3.4828221494
  H        11.1178019856        0.4270355518       -3.1752336793
  H        11.2010279441       -0.3582109123       -5.4844481211
  H        12.8467391798       -2.1248781566       -6.1280038656
  H        14.2628386996       -3.1819566769       -4.2955851063
  H        14.2898591863       -2.1380123746       -2.0616856470
  C        10.0959403513        7.3462569161        1.1806742394
  C         9.0872277664        8.0244456754        1.8787869845
  C         8.0123700250        8.6384480643        1.1291878363
  C         7.0133886281        9.4342655506        1.8448479168
  C         5.9773912798        9.9224548291        1.0501866307
  C         9.0799679706        8.2849206058        3.3623052030
  C         9.7489045896        9.4330557940        3.8569466188
  C         9.5898854744        9.9404638027        5.1118753782
  C         8.6626520099        9.2961925965        5.9812867304
  C         8.0296691549        8.1139433938        5.5994082327
  C         8.1997669560        7.6165678211        4.3342703733
  H         6.9232566295        9.5721212132        2.8770721887
  H         5.1372538384       10.4155678500        1.5767825960
  H        10.5126690980        9.9652768985        3.2689085041
  H         9.9677381253       10.8480187046        5.4779082134
  H         8.2666579468        9.7472839522        6.9208548435
  H         7.3208060501        7.6084254272        6.3159097701
  H         7.6681553930        6.7380592700        3.9680044556
  C        10.0291985875        7.4070418201       -0.3489171819
  C        11.0669471221        6.6521601538       -1.0340954994
  C        12.1704420975        6.0885471131       -0.3969045874
  C        12.1872292344        6.0229366079        1.0468375028
  C        11.1456605076        6.6229296085        1.7805594797
  C         8.0350894375        8.7192347150       -0.3057710047
  C         9.1305591995        8.2199965405       -1.0714510751
  C         9.3416771188        8.5898865449       -2.4870901440
  C        10.0178390599        9.8297153017       -2.6830752764
  C        10.2049069572       10.2824013436       -4.0290417498
  C         9.8287069871        9.5693665134       -5.1257873466
  C         8.9870502896        8.4611416437       -4.8858165597
  C         8.7580234453        7.9993641472       -3.5764326673
  H         8.2448422695        7.0467933301       -3.2215733503
  H         8.4274572272        7.8969327683       -5.6245091352
  H        10.1113394105        9.8978498805       -6.1302672189
  H        10.6804531999       11.2578313449       -4.1108339730
  H        10.4210744813       10.4436485080       -1.8685186918
  C         7.0711261201        9.4055953495       -1.0553989879
  C         5.9865140063        9.9042312519       -0.3429167115
  H         5.1054219857       10.4059694476       -0.7701630945
  H         7.2215890455        9.4425722699       -2.1264689950
  C        11.1382792402        6.3129211298        3.2487039442
  C        10.3710088603        5.2100694517        3.6647534864
  C        10.2938310197        4.8347131324        4.9830899604
  C        10.9125843026        5.6133430077        6.0044011667
  C        11.7266564558        6.6126136904        5.5923135767
  C        11.8753134528        7.0127164959        4.2163541795
  H        12.5891584146        7.7189667013        3.8739846735
  H        12.4425924756        7.0902458148        6.2357706279
  H        10.7649754001        5.5183164090        7.0902789446
  H         9.6802093473        3.9935914928        5.2957318285
  H         9.9114823890        4.5543610757        2.9546977607
  C        13.3610361988        5.4339959874        1.7019362574
  C        14.3579724092        4.9150077770        0.9107959392
  C        14.3860241817        5.1106360741       -0.5087488935
  C        13.3294709896        5.6547875593       -1.1092354749
  H        13.3518550564        5.7625396492       -2.2052058289
  H        15.3122935031        4.8285294560       -1.0252367317
  H        15.1774845352        4.4372542144        1.4102567938
  H        13.4718649408        5.2952092396        2.7582325459
  C        11.0242446680        6.3823381034       -2.5732609966
  C        10.2300816310        5.2449982700       -2.9460247887
  C        10.2788997352        4.6959261985       -4.2303052426
  C        11.0755828477        5.3225152140       -5.2118527273
  C        11.8302387045        6.4680964705       -4.8539568335
  C        11.8063527748        7.0215747578       -3.5804801568
  H        12.3644395915        7.9752288917       -3.3967458116
  H        12.4334590349        6.9258020864       -5.6465988915
  H        11.2605612543        4.9074937237       -6.2531712036
  H         9.6494369632        3.8139724040       -4.5031640215
  H         9.6819203819        4.7171269621       -2.1576042762
