140

  C        14.9706541947       -0.1501061361        2.0323946929
  C        15.9571186015        0.6761409016        2.6665765093
  C        16.9725608078        1.2952706817        1.9605490945
  C        17.9093978095        2.1896574160        2.5346454117
  C        18.9892382786        2.6518490700        1.8238822303
  C        15.9559361219        0.9730790985        4.1848586322
  C        15.2811650120        2.0696558423        4.7339902454
  C        15.5643218017        2.4780721601        6.0386211151
  C        16.3796544296        1.7127803934        6.8898112178
  C        17.0705574534        0.6148700987        6.2870810569
  C        16.9908653048        0.3356258874        4.9110972314
  H        17.9302537246        2.3446678431        3.6368535618
  H        19.7768178538        3.1678445567        2.4135854449
  H        14.5817529061        2.6882716535        4.1645712925
  H        15.0426949055        3.4034694485        6.3220829540
  H        16.4683805041        1.9645507287        7.9633425484
  H        17.8052567487        0.1159584646        6.9546891638
  H        17.5526143720       -0.4828733807        4.4094695724
  C        14.9822039118       -0.2270275837        0.5331313220
  C        13.9346696200       -0.9199845830       -0.1392930067
  C        12.9145852898       -1.4327557431        0.6398645750
  C        12.8764001986       -1.3782611692        2.1040399411
  C        14.0068919997       -0.8292788184        2.7711128369
  C        17.0141252905        1.1541977437        0.5269596987
  C        15.9915852859        0.5156987908       -0.2102875872
  C        15.8700157085        0.9009077181       -1.6475700784
  C        15.0674699643        2.0198421004       -2.0165432219
  C        14.9387684461        2.3861683572       -3.3948827472
  C        15.6886958656        1.7224428308       -4.3583615286
  C        16.5919669930        0.6466372559       -3.9282303837
  C        16.6008528233        0.2194220992       -2.6019020267
  H        17.2615472503       -0.6017607380       -2.3308736234
  H        17.1620964507        0.1219321446       -4.6753124945
  H        15.6795097900        2.0268593851       -5.3967886539
  H        14.2363238198        3.1772507157       -3.6817823276
  H        14.3475524696        2.5337583913       -1.3673217546
  C        18.0866137164        1.7599762798       -0.1802005532
  C        19.0505238842        2.4425361541        0.4519795601
  H        19.9535903724        2.7368597828       -0.0764465258
  H        18.1444435921        1.5091998014       -1.2378893038
  C        14.0975503795       -1.1746188947        4.2955108845
  C        14.7588987514       -2.3994745027        4.5123795448
  C        14.7766134292       -2.9304277330        5.8451118424
  C        13.9234758699       -2.3494530457        6.7652986882
  C        13.1584216739       -1.1571757290        6.4911838234
  C        13.3524991085       -0.5654053994        5.2892822222
  H        12.9343593344        0.4834339014        5.0770230200
  H        12.4752522627       -0.7847346541        7.3546776792
  H        14.0314960880       -2.6232243948        7.7861398769
  H        15.2402590968       -3.9326718658        6.1037969481
  H        15.4409797617       -2.8162455730        3.8329124749
  C        11.8697225971       -2.0646101489        2.8522936939
  C        10.9011159096       -2.7936696594        2.2035859017
  C        10.8293894232       -2.7915128672        0.7907486081
  C        11.7712233812       -2.1072625473        0.0597437506
  H        11.6503338619       -1.9664804822       -0.9817494348
  H         9.9441226883       -3.2675928163        0.3893041881
  H        10.1097738613       -3.2375642894        2.8003071235
  H        11.7617123639       -1.7960602564        3.8926438070
  C        13.9734108409       -1.2447366090       -1.5751102815
  C        14.7450732590       -2.3178569516       -2.0337596622
  C        14.8002190828       -2.7012142321       -3.3707451054
  C        13.9686024315       -1.9292003963       -4.2550614133
  C        13.2261254585       -0.8714804427       -3.8205829684
  C        13.1621209677       -0.5465139316       -2.5050145462
  H        12.5047521756        0.2245606997       -2.1123194456
  H        12.7211741339       -0.2538580478       -4.5125529086
  H        13.9734175538       -2.2228969923       -5.3159392526
  H        15.4206696572       -3.5402114378       -3.7372495254
  H        15.3780959952       -2.8473484163       -1.3095199135
  C        11.2692153227        7.1438069654        2.0203361007
  C        10.2485045233        7.8975827697        2.7144184414
  C         9.2207228660        8.5146515123        1.9802137721
  C         8.1402572563        9.2306186701        2.6491357794
  C         7.1569275910        9.9119954840        1.8925799229
  C        10.2320178948        8.1971118847        4.1927010477
  C        11.1707254046        9.1741492451        4.6113945876
  C        11.2170055132        9.6313127935        5.9541866606
  C        10.3956711734        8.9520078557        6.8259770999
  C         9.6001835422        7.8457324843        6.4407613651
  C         9.4396620327        7.5173017918        5.0983823326
  H         8.1451810310        9.4066842383        3.6893027342
  H         6.3620701002       10.3651378180        2.4338164989
  H        11.8133471336        9.5009513368        3.7991267065
  H        12.0370218964       10.3110158403        6.2178673072
  H        10.3887345767        9.1643206249        7.8656226861
  H         8.9376502077        7.3605169858        7.1290798632
  H         8.8108031822        6.7276628509        4.6566388269
  C        11.2818538921        7.2230987929        0.5529415211
  C        12.1944231625        6.3823165163       -0.2283030871
  C        13.2863050613        5.7608905138        0.4287094003
  C        13.3582937931        5.8525444028        1.9093849868
  C        12.3445054997        6.3866063160        2.6472695382
  C         9.1939210133        8.5643661343        0.5197655579
  C        10.3366049719        8.0532339567       -0.1535013750
  C        10.4486235693        8.4414296120       -1.5836626747
  C        11.2917689555        9.5237894160       -1.8747619336
  C        11.3527869033       10.1188508818       -3.1394917954
  C        10.5812461782        9.5880971506       -4.1714799564
  C         9.7008079151        8.4823668042       -3.8802270431
  C         9.6356738856        7.9641850542       -2.5968084059
  H         8.7951017970        7.2620028045       -2.3302572858
  H         9.1462044584        8.1251296528       -4.7131381240
  H        10.4767257015       10.0193981913       -5.1950701739
  H        12.0326792811       11.0200878478       -3.3251650011
  H        11.9270230694        9.9481767503       -1.0690922227
  C         8.0986649916        9.1900285276       -0.2104986404
  C         7.0666205143        9.7598963165        0.4632695755
  H         6.1928135947       10.2372497909       -0.0040692287
  H         8.1190643972        9.1558425100       -1.2494979393
  C        12.3921519912        6.0509373045        4.0773196914
  C        11.4294686328        5.1753180920        4.5864468668
  C        11.4319017970        4.8709033721        5.9114804933
  C        12.5287946431        5.2900408704        6.7148746110
  C        13.5077546872        6.1330337287        6.2371061761
  C        13.3407569992        6.6323128279        4.9517547764
  H        13.9419354211        7.4000454450        4.5454453332
  H        14.3345954193        6.4121885178        6.9079536216
  H        12.6328658172        4.8613515814        7.6635029617
  H        10.6211820824        4.2498406979        6.3284389953
  H        10.6316250737        4.7752234287        3.9714113091
  C        14.5534355461        5.2083179075        2.5700046066
  C        15.5332810652        4.6469169170        1.8391905766
  C        15.3688922037        4.4638571044        0.4538745283
  C        14.2767294660        4.9786744166       -0.2164015525
  H        14.2257964451        4.8476532597       -1.3210368288
  H        16.1156785651        4.0324447686       -0.1584387945
  H        16.4259390032        4.1740507978        2.2874087308
  H        14.5786986050        5.2351712222        3.6584244265
  C        12.0523259984        6.1057110436       -1.6842641048
  C        11.3475033000        4.9665719173       -2.0926096444
  C        11.3903691934        4.5522218497       -3.4531498615
  C        12.1125555003        5.3824847725       -4.3424676945
  C        12.9094441708        6.4557369580       -3.8934226609
  C        12.8981177904        6.7305610486       -2.5520010833
  H        13.6265727691        7.5502217764       -2.1829194044
  H        13.5798887702        6.9554427680       -4.5429305343
  H        12.0365777095        5.2321841350       -5.4651586683
  H        10.7420630134        3.7533817085       -3.7395128245
  H        10.9764390987        4.3153557137       -1.2686726469
