140

  C         5.2323754150        0.1125039819       16.3397127506
  C         6.3531463575        0.6745197518       16.9837668743
  C         7.4939867782        1.0689739002       16.2892275833
  C         8.6068095905        1.6371935935       16.9710204596
  C         9.5540423888        2.3401154515       16.2470767374
  C         6.3579292344        1.1066224907       18.4485908742
  C         5.4899773291        2.1166664038       18.8219644465
  C         5.3477034519        2.4876846061       20.1394632887
  C         6.2472074092        2.0593309459       21.0675972549
  C         7.2595392659        1.1570716111       20.6712892738
  C         7.1800327439        0.5461912389       19.4546767619
  H         8.6557711780        1.6733266816       18.0678517607
  H        10.4666782298        2.7519037014       16.6270941080
  H         4.7173482190        2.5289962165       18.1858363292
  H         4.5829626490        3.2137913357       20.3136496515
  H         6.3670238181        2.4490407899       22.0925380740
  H         7.9951573399        0.8582624455       21.4869405928
  H         7.6413116358       -0.3379655625       19.1713950452
  C         5.2144612776       -0.0381201271       14.8894852652
  C         4.1901403799       -0.7999016761       14.2373775400
  C         3.0662651541       -1.2143518097       14.8832523832
  C         3.0837556027       -1.2163105836       16.3955885677
  C         4.2251989346       -0.6066221025       17.0980996143
  C         7.4094065746        1.1624968899       14.8672086506
  C         6.2578617047        0.6616247074       14.1893739885
  C         6.0945547187        1.2182908760       12.8485104943
  C         5.3026763411        2.3493576801       12.7460768226
  C         4.8934262680        2.8638383119       11.4968389292
  C         5.4316625288        2.3243982531       10.2999901268
  C         6.3701965407        1.2709835734       10.4223866576
  C         6.6471290763        0.7380258347       11.6651432276
  H         7.2845027631       -0.1194018370       11.7177901158
  H         6.7634114903        0.8304033700        9.5175779788
  H         5.1346580373        2.6204243070        9.2907820998
  H         4.2634147773        3.7341821518       11.4654681381
  H         4.9183120571        2.7255659032       13.6589000209
  C         8.4684896992        1.8836966948       14.0996800298
  C         9.5404983743        2.4428173135       14.7918954957
  H        10.4661818008        2.7096038795       14.3482561656
  H         8.3621770182        2.0010925049       13.0509787345
  C         4.3512414293       -0.9854359530       18.5212499541
  C         5.0574448582       -2.1349754571       18.8755634538
  C         4.9241115716       -2.5028875688       20.2288807689
  C         4.1458085822       -1.9069038233       21.2188528334
  C         3.4965068174       -0.7292280601       20.8233960833
  C         3.5696210288       -0.3209821905       19.5288254621
  H         3.1622202602        0.6179032827       19.2408384622
  H         2.9625447405       -0.1345829037       21.5205518591
  H         4.0915000222       -2.2864224091       22.2348232348
  H         5.4322044958       -3.4077032950       20.4651065905
  H         5.6414319120       -2.7549360073       18.2183354261
  C         1.9745242648       -1.7316855739       17.1166212797
  C         0.9477733149       -2.4139995815       16.4958297330
  C         0.9561662792       -2.4638622060       15.0790881467
  C         1.9549464300       -1.9148444468       14.2861430754
  H         1.8925805605       -1.9315843629       13.2120665717
  H         0.1182485827       -3.0321677463       14.6605090215
  H         0.0995519230       -2.7146002130       17.1178034181
  H         1.8992735101       -1.8015167889       18.1744409890
  C         4.3300325674       -1.2005276752       12.7945400798
  C         5.0788214618       -2.2879998824       12.2850641470
  C         5.1610068677       -2.5067943769       10.9032995271
  C         4.3931983019       -1.7479717358       10.0376900734
  C         3.5027657332       -0.7171818780       10.5050094107
  C         3.6053840916       -0.4849110146       11.8654421592
  H         2.8939245734        0.2099542361       12.3401821402
  H         2.9060799614       -0.1407818752        9.8838450537
  H         4.3070819075       -1.9637356328        8.9595922967
  H         5.7846110259       -3.3230504707       10.5589915245
  H         5.3680319390       -3.0901278325       12.9788775897
  C         1.5281914110        7.0799116621       15.9456846452
  C         0.5023934346        7.8185329276       16.6505589215
  C        -0.5269643292        8.3439892659       15.9569585607
  C        -1.7481358032        8.8189463500       16.6090778030
  C        -2.6588014563        9.6145139973       15.9028786160
  C         0.6599719612        8.0847663594       18.1083415247
  C         1.2547329931        9.3256585708       18.4339345715
  C         1.2031961989        9.7739290506       19.7633319443
  C         0.4274869579        9.1139860847       20.8087429113
  C        -0.1758502281        7.9589391924       20.4389154188
  C        -0.1371684682        7.4899833769       19.1066624359
  H        -1.9444373427        8.6679860726       17.6342542658
  H        -3.4052566769       10.1327999326       16.4712563341
  H         1.7064155058        9.9639759474       17.6665145403
  H         1.6125656427       10.7357278867       20.0759725705
  H         0.4626132879        9.5449107629       21.8174273848
  H        -0.8938607853        7.4495778048       21.1027582635
  H        -0.5583128613        6.4795199367       18.8887295108
  C         1.5348973411        7.0982772702       14.4786660577
  C         2.6546349442        6.4829690781       13.8101805909
  C         3.7699366314        6.0707049219       14.5424163257
  C         3.7502997426        6.0208355954       15.9888027485
  C         2.5783022367        6.4934929259       16.6452840533
  C        -0.4716326864        8.4070977515       14.5133806145
  C         0.5858843367        7.8505457342       13.7671455205
  C         0.6881434458        8.2488950008       12.2921531785
  C         1.4088045258        9.4213247710       11.8454872323
  C         1.3366398356        9.8211038439       10.5584902613
  C         0.4024551544        9.2562172664        9.7158819314
  C        -0.3293442737        8.1517010568       10.0983468717
  C        -0.2096014238        7.6434280316       11.3749456072
  H        -0.8275587847        6.7967024705       11.6883910610
  H        -1.0960404678        7.6669512438        9.4606454293
  H         0.4550966750        9.5892156843        8.6970973766
  H         1.8186769356       10.8136402421       10.2447073430
  H         2.1378251771        9.8876761280       12.4931420746
  C        -1.4987817955        9.1458497780       13.8985791816
  C        -2.5627509122        9.7526185887       14.5465471095
  H        -3.2106933321       10.4178109460       13.9671163830
  H        -1.4614989634        9.2252442784       12.8046732426
  C         2.5428727757        6.1528347151       18.1101450425
  C         1.6929059701        5.1162074560       18.5886449696
  C         1.6854036977        4.7038983270       19.9421559476
  C         2.5106093261        5.4188669553       20.8484464535
  C         3.4210772406        6.3968302527       20.3961479179
  C         3.3508687534        6.8110019992       19.0547382151
  H         3.9845673172        7.5943372001       18.6745606297
  H         4.1589196674        6.8784629337       21.0360667835
  H         2.6381892497        5.1507513589       21.9107095248
  H         0.9379165885        3.9416332385       20.2292318068
  H         0.9393087050        4.7104071699       17.8997931794
  C         4.8028879439        5.3589949655       16.7350452952
  C         5.9562954818        4.9136679401       16.0100948829
  C         5.9696759017        4.9787869586       14.5998130211
  C         4.8807631120        5.4041496902       13.8937259363
  H         4.8080525728        5.1081581317       12.8612793724
  H         6.8383413127        4.5014083515       14.0604908732
  H         6.6891656030        4.4289746303       16.6878647085
  H         4.6169714755        5.1985528251       17.8142481816
  C         2.5938476289        6.0586129493       12.3746143041
  C         1.7242910974        5.0722026709       11.9927697904
  C         1.7103178274        4.6147073014       10.6253713400
  C         2.5469467367        5.3168000349        9.6982381255
  C         3.3372700030        6.3990408522       10.1297763107
  C         3.4047130223        6.7375493605       11.4551788440
  H         3.9706856982        7.6095296119       11.7893246083
  H         4.1140561064        6.7734224276        9.4786522039
  H         2.5687777477        5.1504218850        8.6101909829
  H         1.0599982812        3.7750221741       10.3736325043
  H         1.1592627036        4.5856676395       12.7812431325
