140

  C         4.1847496536        0.0842511598       15.2380036963
  C         5.1864391021        0.8772476044       15.8100455711
  C         6.2472080258        1.4147309542       15.0626577572
  C         7.4437024839        1.9805339731       15.6724760304
  C         8.4937964179        2.5984128380       15.0185832696
  C         5.1048171576        1.2630907391       17.2604666980
  C         4.3071236905        2.3773344693       17.6055587987
  C         4.1452884985        2.7998994833       18.9321332784
  C         4.9167206836        2.1544912106       19.8955111081
  C         5.8929672465        1.1660357802       19.6033279664
  C         5.8758714646        0.6427422650       18.2763464052
  H         7.3642020638        2.0355095997       16.7286733660
  H         9.2308585612        3.2157574415       15.4751979884
  H         3.8811689288        2.8608447275       16.7551300198
  H         3.5558346756        3.6278550386       19.2495248594
  H         4.7859188298        2.4698941971       20.9777630046
  H         6.4511088530        0.7406835182       20.4896586513
  H         6.4137290280       -0.2941423049       18.0958508566
  C         4.1527196875        0.0336679910       13.6618344032
  C         2.9937810405       -0.5374737628       13.0837622255
  C         1.9064980302       -1.1092675471       13.8619750044
  C         2.0607838315       -1.1597906141       15.3123212348
  C         3.1341020616       -0.4914679623       16.0215234226
  C         6.2910184643        1.4018805812       13.6477733251
  C         5.2058714161        0.7793013733       12.9481536976
  C         5.0494874190        1.1590328863       11.4950311896
  C         4.0788192248        2.1444486741       11.1805014512
  C         4.1198517850        2.6375807982        9.9199239992
  C         5.0095405345        2.1725557797        8.9474992184
  C         5.9327796148        1.2238683944        9.2245837031
  C         5.9242975397        0.6941282407       10.5207561983
  H         6.7177435863       -0.0018829926       10.8617138595
  H         6.5954067715        0.7470205414        8.4633579883
  H         4.9859325445        2.5382542928        7.9361938398
  H         3.4067405207        3.4156607747        9.6526054741
  H         3.3849012470        2.5384572788       11.8949537018
  C         7.3814965265        2.0615876570       12.9423305539
  C         8.4565670895        2.5035036267       13.6079533610
  H         9.2654932645        2.9586246339       13.0385758702
  H         7.2966124160        2.0582175246       11.8594785446
  C         3.2128089928       -0.8217513229       17.5012942472
  C         4.0387855700       -1.8953948183       17.9115701705
  C         4.0197755962       -2.3643772333       19.2112826041
  C         3.2493017966       -1.6302424110       20.1905861396
  C         2.5731458707       -0.4655944773       19.7773246800
  C         2.4606614255       -0.1012912439       18.4537097277
  H         1.8352700720        0.6888966902       18.1032835177
  H         2.1514203345        0.0799865091       20.6360319981
  H         3.2940439810       -1.9465845248       21.2301685958
  H         4.6498236373       -3.1903130750       19.6178605114
  H         4.7072913825       -2.3906996259       17.1906224429
  C         0.9912564020       -1.8067755831       16.0140163132
  C        -0.0589921503       -2.4112333179       15.3575934044
  C        -0.1753082418       -2.4516663261       13.9514238226
  C         0.7958895291       -1.7497712624       13.2543235209
  H         0.6535073945       -1.7580236333       12.1730626757
  H        -0.9989314575       -2.9590389360       13.4724727707
  H        -0.8451942850       -2.9029813382       15.8812660412
  H         1.1263582373       -1.7787627092       17.0948279277
  C         2.9071851231       -0.8766924925       11.5823760483
  C         3.7039743758       -1.9752634299       11.2045336479
  C         3.9873177839       -2.4328234070        9.8428443934
  C         3.1825008317       -1.7716209931        8.8767017577
  C         2.3779842556       -0.6743909736        9.2219976573
  C         2.2161010797       -0.2428548287       10.5434323381
  H         1.6005222172        0.6724451443       10.6771863814
  H         1.8436322787       -0.1210990718        8.4690259116
  H         3.2853861980       -2.2083053042        7.8418843383
  H         4.5717553329       -3.3285201326        9.6577243481
  H         4.0940743086       -2.5293085270       12.0617018393
  C         0.4586285685        7.4590000295       15.2434754167
  C        -0.5994616280        8.1592592811       15.9793561512
  C        -1.7284425018        8.6230029587       15.3292012716
  C        -2.7418283676        9.3562063643       16.0231389170
  C        -3.6896208925       10.0935744955       15.3036437517
  C        -0.2882405425        8.5650559726       17.3700093504
  C         0.6322524000        9.6532034209       17.5348304202
  C         1.0629724148       10.0118299519       18.8414950518
  C         0.4396627169        9.3471936023       19.9204135936
  C        -0.6477547095        8.4309019700       19.7631633826
  C        -0.9492739412        8.0274418999       18.4514198134
  H        -2.6383462924        9.3091951377       17.1148777740
  H        -4.5201880369       10.5800890099       15.8044238678
  H         1.0729821680       10.0240228482       16.6428949283
  H         1.8448468582       10.7280211605       19.0202873965
  H         0.6267764091        9.6097071967       20.9496792408
  H        -1.2257928717        8.0766216890       20.6108983297
  H        -1.6346020177        7.2144377827       18.2049964376
  C         0.4511050474        7.4581096543       13.7394836496
  C         1.5305704483        6.8145749830       13.0978389775
  C         2.5562792276        6.2066993585       13.7974064972
  C         2.6033424361        6.2011690865       15.2535273298
  C         1.4976616431        6.6865049994       15.9592738732
  C        -1.7488554251        8.5506142140       13.8318191811
  C        -0.6400454824        8.0525014797       13.0940684552
  C        -0.6778754480        8.3308603882       11.6617487645
  C         0.0602791237        9.4118934745       11.1914647309
  C         0.0328789251        9.7874411342        9.8078703527
  C        -0.8077881178        9.1119574735        8.9396954509
  C        -1.5832838106        8.1111327664        9.4733423033
  C        -1.5108479015        7.6897101871       10.7689174154
  H        -1.9983912471        6.7595345125       11.0468956129
  H        -2.3161721622        7.6738145157        8.8160601639
  H        -0.7910996703        9.4913679268        7.9469418787
  H         0.5934734245       10.6305316400        9.3877114092
  H         0.7672730205        9.8699597990       11.9087758087
  C        -2.7809819953        9.3937134623       13.1998725772
  C        -3.6754348964       10.1823978310       13.8802465867
  H        -4.3783220075       10.8573272174       13.4126601138
  H        -2.8063883257        9.4058762352       12.1366882392
  C         1.3352300535        6.3498806898       17.3869936666
  C         0.3214562159        5.4595307735       17.7723527915
  C         0.3692176998        4.8836133061       19.0496111748
  C         1.4048284787        5.1674687295       19.9216416973
  C         2.3929372363        6.0550937485       19.5652309527
  C         2.3299626937        6.6170764471       18.2641835813
  H         3.0818354572        7.3861612926       17.9386118609
  H         3.2118389231        6.2758470143       20.2182433201
  H         1.5439278914        4.5983470417       20.8484273622
  H        -0.3928369931        4.1310498356       19.3772719823
  H        -0.5391965864        5.2752840248       17.1216599500
  C         3.7006759798        5.6149767405       15.9290185564
  C         4.6326179941        4.8990677172       15.2271929874
  C         4.6227958223        4.8677952097       13.8248027195
  C         3.6251672841        5.4954470133       13.1557413166
  H         3.5856088598        5.4232950803       12.0835627974
  H         5.3557732939        4.3230483925       13.2922645465
  H         5.4440688328        4.4189877927       15.7816008686
  H         3.8020499146        5.6073051239       17.0115749912
  C         1.4953011350        6.4976981118       11.6287533373
  C         0.6918243530        5.4594910177       11.1066363066
  C         0.7236065831        5.1157071416        9.7761746536
  C         1.4924150969        5.8816567075        8.7964885733
  C         2.3673003947        6.8505955939        9.3287928827
  C         2.3266072302        7.1669825188       10.7126483244
  H         2.9077324702        7.9693671434       11.0846832854
  H         3.0494521058        7.3960131090        8.7348667715
  H         1.5810884517        5.5074699737        7.7998622295
  H         0.0433516575        4.3068686886        9.5294544009
  H         0.0624512072        4.8497226621       11.7628491570
