140

  C        11.5741048295        1.5011571233        1.6527916928
  C        12.5396591989        2.2520001019        2.3191413108
  C        13.6205917591        2.7957342213        1.4875869079
  C        14.7322480541        3.4182475612        2.1323764310
  C        15.8537107962        3.8468529143        1.4827801540
  C        12.5841325081        2.6766837705        3.7755044376
  C        11.7597121097        3.6356662999        4.4221820164
  C        11.9688662551        3.9035446363        5.8157885291
  C        12.8333502159        3.1961934068        6.6322996247
  C        13.7032686782        2.2955521973        6.0442585716
  C        13.4910781679        2.0106673213        4.6792508479
  H        14.7842107515        3.4926186371        3.2513527046
  H        16.6961506517        4.2717193505        1.9898864520
  H        11.0833183117        4.2149153386        3.7764539942
  H        11.4500904723        4.7111965174        6.2876865835
  H        12.9783632739        3.4142290585        7.6667775728
  H        14.3763448463        1.6530212812        6.6149908268
  H        13.9616863134        1.1243434763        4.2367048534
  C        11.5575141435        1.4633701830        0.1605474828
  C        10.5406145950        0.7508260446       -0.4954363572
  C         9.4358490377        0.2361185888        0.2268842674
  C         9.5204885779        0.1157433739        1.6546061841
  C        10.5826798028        0.6563336655        2.3656757423
  C        13.7072818858        2.6226641496        0.0912594882
  C        12.5848695897        2.0671699888       -0.5934885577
  C        12.7120128762        2.1852527498       -2.0680866866
  C        12.3592273729        3.4415704929       -2.5726072051
  C        12.4102383753        3.6848180336       -3.9610377690
  C        12.9357564246        2.6974963497       -4.8267482074
  C        13.2993967524        1.4751899459       -4.2573053672
  C        13.1924705025        1.2023175177       -2.9465068484
  H        13.4530864233        0.1815100887       -2.5898227976
  H        13.6778778588        0.7430390687       -4.9470881886
  H        13.1072389695        2.8803613150       -5.9165019572
  H        12.1029843667        4.6398659428       -4.3912260823
  H        11.8135402896        4.1392712943       -1.8615431576
  C        14.8388090192        3.1318422810       -0.6060113904
  C        15.9192678398        3.7007068310        0.0763600995
  H        16.8429633751        4.0788418744       -0.4180774353
  H        14.8561894775        3.0567324444       -1.7569359447
  C        10.7089128849        0.2184068188        3.7601578219
  C        11.6388397265       -0.8007141139        4.0925124982
  C        11.5684503549       -1.4520874935        5.3435350899
  C        10.5611668220       -1.0975317685        6.3163731478
  C         9.7188439838        0.0128892037        5.9725695260
  C         9.7913673561        0.6473898886        4.7363643854
  H         9.0663931769        1.4811042922        4.4824213496
  H         8.8946825779        0.3442145723        6.6183724876
  H        10.6456718736       -1.5439826303        7.2919929862
  H        12.1879313015       -2.2822885087        5.5888891033
  H        12.3831844605       -1.0237219932        3.4203142624
  C         8.6141081441       -0.7782191667        2.2901596980
  C         7.5181358192       -1.3514195366        1.6352128929
  C         7.3432215547       -0.9914261805        0.2260864608
  C         8.2654987910       -0.2891705297       -0.4587413903
  H         8.1849755829       -0.2322932613       -1.5409626748
  H         6.4667697845       -1.4172568035       -0.3060760009
  H         6.8319634733       -2.0966471467        2.0409025303
  H         8.7702058003       -0.9984625157        3.3502832679
  C        10.4045311752        0.4436399947       -1.9629784009
  C        10.9407316312       -0.7163915686       -2.5869965776
  C        10.6531598834       -0.9744822777       -3.9431100809
  C         9.9227096182       -0.0148986091       -4.7331362306
  C         9.5685465964        1.2096051269       -4.1589874537
  C         9.8102485431        1.3973168889       -2.8255959018
  H         9.4440378182        2.3933346822       -2.3700139012
  H         9.1357258397        2.0344895084       -4.7754888745
  H         9.6611875205       -0.3350182630       -5.7086781085
  H        11.1083314520       -1.8346770113       -4.4221375238
  H        11.5805160646       -1.4402721380       -2.0976529331
  C         7.9669995254        8.1110414349        1.4179896945
  C         6.9357674449        8.8475580900        2.0607824923
  C         5.9241152617        9.4284184182        1.2992201896
  C         4.8590865697       10.0980721724        1.9353653878
  C         3.8600974305       10.7473954702        1.2236343754
  C         7.0624811483        9.1814950159        3.5270842918
  C         7.8135826553       10.2986180717        3.9034148474
  C         7.7737624404       10.8766855815        5.1914868133
  C         7.0398954441       10.2454671051        6.1693397162
  C         6.2297222228        9.1051897697        5.7693205883
  C         6.2889597320        8.5593181138        4.4781716988
  H         4.7846175648       10.0000973170        3.0011260535
  H         3.0847180636       11.3932655760        1.6984038038
  H         8.4158631659       10.8008366876        3.1502854173
  H         8.3512877165       11.8166985456        5.4394149109
  H         7.0641064026       10.6990776357        7.2137219542
  H         5.6152800333        8.6822031844        6.5353686061
  H         5.5442580335        7.8097977129        4.2129246581
  C         8.0382413476        8.1448095622       -0.0469478009
  C         9.0998742778        7.4992008613       -0.7403656632
  C        10.1520920417        7.0403725304        0.0572068419
  C        10.1024468348        6.9274066197        1.4757584761
  C         8.9616156387        7.3882491627        2.1418964757
  C         5.9530554512        9.4659928065       -0.0983168302
  C         7.0348062976        8.8644484878       -0.7551217304
  C         7.0757567907        9.2938292991       -2.2260155531
  C         7.7920324610       10.4026641715       -2.6124203768
  C         7.6435804429       10.9252496991       -3.8817037053
  C         6.7839292122       10.3709686151       -4.8380879443
  C         6.1278644424        9.1575458128       -4.5102266133
  C         6.2517247348        8.6772089842       -3.2154087804
  H         5.5608819175        7.8650142433       -2.8959666194
  H         5.4116179857        8.6126163607       -5.1983786585
  H         6.7645544390       10.7632735762       -5.8546235545
  H         8.1277269811       11.8719617935       -4.1951341386
  H         8.4714614416       10.7897222040       -1.8491608454
  C         4.9427518545       10.1752242976       -0.7951975223
  C         3.9055760314       10.8252408839       -0.1729590848
  H         3.1617054621       11.3495047637       -0.7109684316
  H         5.0661047491       10.2079483129       -1.8817202901
  C         8.7678320500        7.0637358444        3.5967472534
  C         8.0654674899        5.8970670958        4.0640921646
  C         8.1357177536        5.4666012153        5.3951752143
  C         8.9141851645        6.1622322670        6.3483530863
  C         9.5927311249        7.3076876031        5.9007732720
  C         9.5337944813        7.6850164483        4.5296277383
  H        10.2100734343        8.4955925862        4.3150380231
  H        10.2620554682        7.8384156562        6.6394064466
  H         8.8798227539        5.8733959215        7.4004562759
  H         7.4566842468        4.6308955457        5.6355552620
  H         7.5684693109        5.2447486251        3.3110137189
  C        11.2606364975        6.3916836220        2.1567972347
  C        12.3906726631        6.0583580430        1.4823727983
  C        12.4372836071        6.1483126569        0.0521842571
  C        11.3471048173        6.5601189602       -0.6247798631
  H        11.4365291611        6.6440344611       -1.6760861506
  H        13.2791788011        5.8734310321       -0.4958694009
  H        13.1750009989        5.5955022394        2.0876635447
  H        11.1745842341        6.2638958066        3.1918150531
  C         9.1339018442        7.2495715176       -2.2251281659
  C         8.3394662785        6.1732294418       -2.7458294164
  C         8.3830838325        5.7469319691       -4.0721284851
  C         9.2217174329        6.4734813686       -4.8904334337
  C        10.0875219022        7.4237511650       -4.4241946524
  C        10.0210282888        7.8739772036       -3.0866871346
  H        10.7220073797        8.6224393647       -2.6907366417
  H        10.7996097523        8.0215567938       -5.0479158243
  H         9.4031933631        6.0986235656       -5.8843176778
  H         7.6657963555        5.0566605812       -4.4094556450
  H         7.5594412229        5.8160526067       -2.1052916512
