140

  C        14.8527021746       -0.3759765750        0.7275982932
  C        15.9335436833        0.2737215771        1.3836951492
  C        17.0499708184        0.7830599832        0.7186907839
  C        18.0750479680        1.6433683699        1.4144502211
  C        18.8423416175        2.4650158501        0.7112376359
  C        16.0525704427        0.3702201039        2.8326915430
  C        15.4626803147        1.5200433258        3.4126839366
  C        15.6538228568        1.7443185711        4.8388570650
  C        16.4027694626        0.8985927041        5.5791134198
  C        16.9706417762       -0.3151508472        5.0272758252
  C        16.7981926824       -0.5159175122        3.6485845427
  H        18.0377111094        1.5871160108        2.4567511613
  H        19.5085821415        3.1510251379        1.2670065251
  H        14.8272056428        2.2315014230        2.8781418725
  H        15.1484480461        2.6259990099        5.3204874369
  H        16.4253081651        1.2493312493        6.6098659860
  H        17.6440924833       -0.8869533259        5.6392187720
  H        17.2675386712       -1.3911182433        3.2168337417
  C        14.7853522042       -0.4102415252       -0.7279031694
  C        13.7422056233       -1.1215037870       -1.3897691745
  C        12.7043290967       -1.7046456394       -0.6855873654
  C        12.7320444925       -1.6027410637        0.7341236269
  C        13.8537648774       -1.0714444932        1.4569189122
  C        16.9230306934        0.8375277847       -0.7530396694
  C        15.7830688255        0.3501002606       -1.4935614877
  C        15.6422266680        0.8462221024       -2.8635527729
  C        14.8817223918        2.0028047376       -3.1915284261
  C        14.8281000207        2.4953981056       -4.4994666739
  C        15.5197594758        1.8065312653       -5.5087361253
  C        16.2099040940        0.6287114548       -5.2257294727
  C        16.2769459662        0.1262502401       -3.8836602163
  H        16.8804171121       -0.7607713973       -3.6266839407
  H        16.8368387257        0.2563771503       -6.0122635300
  H        15.4636737761        2.2957570138       -6.5073752510
  H        14.3202937526        3.4131135808       -4.7766041551
  H        14.3796190361        2.5233734434       -2.3948830061
  C        17.8882042291        1.6947370111       -1.4253868280
  C        18.8365369941        2.3836582339       -0.7552157792
  H        19.4972619885        3.0167201778       -1.2918007125
  H        17.8106709744        1.7315428538       -2.4862273376
  C        13.8435956610       -1.3350421644        2.8958909686
  C        14.4908068478       -2.4730380291        3.4102667361
  C        14.4592313714       -2.7090814622        4.7862694264
  C        13.6995486619       -1.9251249852        5.6510341858
  C        12.9678144706       -0.8481273301        5.1501996442
  C        13.1083037286       -0.5780525199        3.7604175188
  H        12.7538266987        0.3812784908        3.3592057261
  H        12.4478362612       -0.1958747960        5.8898507531
  H        13.6937599411       -2.2826838326        6.7622429268
  H        14.9591789837       -3.5718990042        5.1524245277
  H        15.0243494992       -3.1985401402        2.7670869824
  C        11.6215304783       -2.1178184609        1.4681189362
  C        10.5382118348       -2.6506351594        0.8482587670
  C        10.4692798154       -2.8424541668       -0.5548771510
  C        11.5718105174       -2.4011308008       -1.2955359013
  H        11.6258224010       -2.5153213506       -2.3556808595
  H         9.5899443913       -3.2361459436       -1.0865891135
  H         9.7091031034       -3.0355363458        1.4169726309
  H        11.5879574880       -2.0683132182        2.5571278779
  C        13.7916866980       -1.3831463198       -2.8517835783
  C        14.3858968818       -2.5555992123       -3.4208701045
  C        14.2213839263       -2.8877118192       -4.7845899874
  C        13.4310988298       -2.0831789506       -5.6082568510
  C        12.9682112960       -0.8772774345       -5.1270094773
  C        13.0998878571       -0.5554857091       -3.7639087089
  H        12.6283160175        0.3372542701       -3.3807146448
  H        12.4516420371       -0.1377271420       -5.7118024025
  H        13.2806627787       -2.2726574236       -6.6480175183
  H        14.7023506713       -3.7703212022       -5.1578701187
  H        14.9895097321       -3.2085895179       -2.7926500131
  C        10.9569519775        6.8461383514        0.8303250372
  C        10.0979673486        7.6677716354        1.6281236289
  C         9.0052804662        8.3367871379        0.9868982961
  C         8.0936265046        9.1202659165        1.7086510412
  C         7.0390105163        9.6835386521        1.0399482508
  C        10.3171543855        8.0638114781        3.0819222553
  C        11.1233744590        9.1979845296        3.2965682773
  C        11.3357687757        9.6677096007        4.5799678632
  C        10.6021996709        9.1692034322        5.7006396963
  C         9.6087352152        8.0923804509        5.4037190424
  C         9.4933620976        7.6150341561        4.0950588844
  H         8.2338743556        9.5198764008        2.7278379203
  H         6.3699274699       10.3109455535        1.6789053924
  H        11.7114671001        9.6334200752        2.4599703159
  H        12.0602179080       10.4330095727        4.6864554592
  H        10.7721882101        9.4867833983        6.7026046388
  H         8.9380297799        7.7242792672        6.2361153145
  H         8.8384839315        6.7736358948        3.8145506645
  C        10.9230145905        6.8590033590       -0.5636099695
  C        12.0682531769        6.3039651259       -1.2894425412
  C        13.1186526127        5.7009767318       -0.5580062641
  C        13.0517218172        5.4856407219        0.8942702266
  C        11.9343665629        6.0204845453        1.5763172993
  C         8.8882043626        8.2404926454       -0.4805255085
  C         9.9098873960        7.6057708696       -1.2587346173
  C        10.0724226118        7.9394382005       -2.6841111852
  C        10.9088948348        9.1199705911       -2.9768114349
  C        10.9332898387        9.7052263655       -4.2274885394
  C        10.1614353600        9.1776412829       -5.2676027841
  C         9.3453831092        8.0700184953       -4.9909769398
  C         9.2826504679        7.4958522714       -3.7389435336
  H         8.6634011094        6.5824594959       -3.5923789582
  H         8.7036863107        7.7049244271       -5.7566501740
  H        10.1983406284        9.6372804079       -6.2795746016
  H        11.5193652753       10.5779341836       -4.3877072524
  H        11.5285605416        9.5228837712       -2.2037214832
  C         7.7200784980        8.8565371062       -1.2219988677
  C         6.8619815639        9.5319806033       -0.3603983229
  H         5.8997410888        9.8225371742       -0.7200030027
  H         7.6509312700        8.7963314029       -2.2585237986
  C        11.9086399089        5.7154725219        3.0399299133
  C        11.1489713544        4.6727988239        3.5425540204
  C        11.3749079433        4.2739949128        4.8558204046
  C        12.4044240061        4.7687623036        5.6489123408
  C        13.1084123475        5.8771035518        5.1725420155
  C        12.8530431903        6.3118910661        3.8832694891
  H        13.4282003928        7.1344445263        3.4858078922
  H        13.8052503229        6.4664487164        5.7654958821
  H        12.5189148163        4.3344210317        6.6538911096
  H        10.8649854934        3.3974844894        5.2861698254
  H        10.3601782827        4.2180434338        2.9022020872
  C        13.9533916287        4.5536839474        1.5063952621
  C        14.9961702791        3.9825220879        0.7998769084
  C        15.2522662124        4.3925306477       -0.5731154280
  C        14.2648108856        5.1057485651       -1.2177877021
  H        14.4409196342        5.2904146819       -2.3332278216
  H        16.1930684431        4.2168744031       -1.1234434119
  H        15.7450035017        3.3787232545        1.2855206225
  H        13.7773847343        4.4075524964        2.5692652401
  C        12.0661392386        6.0887945717       -2.7882371088
  C        11.2752821291        4.9881627803       -3.3316656726
  C        11.3423062413        4.7615939030       -4.6694714436
  C        12.1359243320        5.5584964920       -5.5537304076
  C        12.8921215049        6.6081234529       -5.0656452788
  C        12.8978993734        6.8301751333       -3.6337173554
  H        13.4118487772        7.6398621406       -3.1000712120
  H        13.4204258257        7.2503526038       -5.7377855359
  H        11.9391984752        5.4607507475       -6.6434708141
  H        10.6503465605        4.0426387932       -5.1094766920
  H        10.6902759926        4.3940466115       -2.6862559585
