140

  C         2.9990798801        0.1790590921       14.6302730499
  C         4.0203405100        0.8720800076       15.4868942811
  C         5.0510673078        1.5723582628       14.8644455930
  C         6.1814165382        2.1095655042       15.6296205264
  C         7.2053838896        2.7754116171       15.0664832323
  C         3.9189185559        1.2388563786       16.9545587327
  C         3.2929188089        2.4714190308       17.3046056022
  C         3.3157489325        2.8634516427       18.5989903473
  C         4.1476724978        2.2905609988       19.5705897951
  C         4.7548058782        1.0992924884       19.2046905128
  C         4.6706404508        0.5717765160       17.9224166264
  H         6.0452789950        2.1639614191       16.7198492061
  H         8.0050357941        3.3162921795       15.6167482677
  H         2.5139709534        2.9505384635       16.7007165074
  H         2.7735510444        3.7372008861       18.8180897320
  H         4.1058992810        2.5189256980       20.6370518964
  H         5.4767804154        0.5965034567       19.8649653496
  H         5.2197776678       -0.3648040349       17.7456426322
  C         3.0913237495        0.3018298288       13.1692361742
  C         2.1502344803       -0.3565516807       12.3294885438
  C         0.9682967499       -0.8950664070       12.8663400603
  C         0.8384287961       -0.9334094296       14.3152431233
  C         1.9054709356       -0.5760050541       15.1449691276
  C         5.1077366160        1.7349859549       13.5037751663
  C         4.0972864913        1.0996090124       12.6786181673
  C         4.2549958774        1.4965182988       11.1924304727
  C         3.6847215908        2.6621184893       10.6837570777
  C         3.8403879898        3.0435763794        9.3157393577
  C         4.5928895927        2.1963030654        8.4952181913
  C         5.2195806620        1.0378786233        9.0222387292
  C         4.9648535400        0.6204433032       10.3489616159
  H         5.4844416924       -0.1378284902       10.9029234807
  H         5.8195675468        0.4694957739        8.2981398585
  H         4.6286917477        2.4329403180        7.4363368665
  H         3.2783525633        3.9014505363        8.8833922396
  H         2.9735160503        3.1732643692       11.3442387912
  C         6.3001267611        2.3212618802       12.8008909038
  C         7.3532266775        2.8076424715       13.5642204119
  H         8.2631988211        3.1756945717       13.1180683827
  H         6.3042311328        2.3194492486       11.7574679028
  C         1.9680946781       -0.8788128838       16.5395549804
  C         2.8688429944       -1.8997010173       16.8717130627
  C         2.9043850330       -2.3733735895       18.1977867591
  C         2.0863391827       -1.8681830162       19.1881236696
  C         1.1959635093       -0.8303521450       18.8575839835
  C         1.1636417912       -0.2965826324       17.5469414130
  H         0.5857058076        0.6111786635       17.3178910294
  H         0.5152809085       -0.3445546927       19.5766332768
  H         2.2652449920       -2.1104478571       20.2235812770
  H         3.5771659357       -3.1895299379       18.3682032214
  H         3.5029613475       -2.4172846818       16.1747461158
  C        -0.4576987215       -1.3608358947       14.8280142598
  C        -1.4252364115       -1.8671266838       13.9964595848
  C        -1.2688708567       -1.8345797481       12.5617847012
  C        -0.0522787501       -1.4455923247       12.0382786821
  H        -0.0731934454       -1.3343715050       10.9919626612
  H        -2.1780228328       -2.1016832304       11.9448565715
  H        -2.3215365529       -2.3152048181       14.4630742910
  H        -0.5521703841       -1.4057211785       15.8978288330
  C         2.2486854721       -0.6262906798       10.8835750508
  C         2.8590267185       -1.8250080175       10.4149118849
  C         2.6665004627       -2.0872418874        9.1086815250
  C         1.7633293294       -1.4116600819        8.2817682371
  C         1.1495985472       -0.1576796368        8.6960726553
  C         1.5275745500        0.1932399759       10.0245302208
  H         1.0744238067        1.0814580950       10.4872338700
  H         0.4449075665        0.3823577836        8.1078608468
  H         1.6827421544       -1.7239266797        7.2222313732
  H         3.1211391340       -2.9679445376        8.6472648796
  H         3.3583518778       -2.5172807628       11.0154533453
  C        -0.4801092284        7.5888153808       14.7820386299
  C        -1.5296757492        8.3223686296       15.4691992036
  C        -2.5420413782        8.9525531035       14.8053341475
  C        -3.6753488603        9.6587844949       15.4477615525
  C        -4.7965351027        9.9586454596       14.7295530304
  C        -1.5941225973        8.5960489211       16.9221595969
  C        -0.8626196762        9.6934562383       17.4161505761
  C        -0.9641170730       10.0952369472       18.7692026228
  C        -1.7217487944        9.3608361583       19.6758152440
  C        -2.4410950284        8.2272524903       19.1633330295
  C        -2.4262249589        7.9208622379       17.8461386338
  H        -3.6225318969        9.9009851059       16.5080040132
  H        -5.5861144029       10.4895416954       15.2083234368
  H        -0.1613412157       10.2440163992       16.8201155874
  H        -0.4221741258       11.0110614190       19.0089339050
  H        -1.7640988733        9.6449895789       20.7307478107
  H        -3.2192617549        7.7502104881       19.7422409157
  H        -3.1739007801        7.1623787265       17.5777987241
  C        -0.3958387938        7.6627369877       13.3356225464
  C         0.5862937741        6.8829329287       12.6769493210
  C         1.6460340837        6.2206226765       13.4094617211
  C         1.5771423168        6.1836691772       14.8375650930
  C         0.4209022052        6.6795810427       15.4672720258
  C        -2.5062742045        8.9529569318       13.3315894881
  C        -1.4514806764        8.3572614319       12.6400102023
  C        -1.4424003329        8.5228756279       11.1314907361
  C        -0.7736540940        9.5592109104       10.5009594914
  C        -0.8990734440        9.7494450293        9.1551736243
  C        -1.7474038699        8.9343234314        8.3594840684
  C        -2.4584526979        7.9429720488        9.0245210643
  C        -2.2841550104        7.6916760436       10.3892724988
  H        -2.9158584941        7.0192529788       10.9385710829
  H        -3.2878825499        7.4270729922        8.4549977208
  H        -1.9640537020        9.1166652504        7.2999687895
  H        -0.4247795056       10.6234812660        8.7269674578
  H        -0.1187418974       10.2389855134       11.0646161019
  C        -3.6155958423        9.6119774789       12.6079648196
  C        -4.7466304973       10.0427927550       13.2589350625
  H        -5.6712593853       10.1972984847       12.7302660120
  H        -3.6584587072        9.5154775777       11.5003261581
  C         0.3221456635        6.3102702855       16.9358075986
  C        -0.4568162006        5.2111372143       17.3853472190
  C        -0.3749518745        4.7480431968       18.6906341640
  C         0.3541758013        5.4874715737       19.6830166531
  C         1.1150063030        6.6276222811       19.2425595822
  C         1.1550407823        6.9781475327       17.8778632590
  H         1.7865394904        7.7819842818       17.5554386521
  H         1.7550435492        7.2092274506       19.9602919250
  H         0.3867619346        5.2720135478       20.7505866185
  H        -0.9643959484        3.8452949456       18.8790029327
  H        -0.9964445835        4.6600689838       16.5976126012
  C         2.5797923075        5.4080331395       15.4645206900
  C         3.6326035995        4.8046109291       14.8031774319
  C         3.6389878841        4.7955729105       13.3998260848
  C         2.7191638422        5.4951099216       12.7210075071
  H         2.7980620667        5.5782577767       11.6435108663
  H         4.4882240921        4.3548988301       12.8614888436
  H         4.4100044735        4.2569454242       15.3785620015
  H         2.5168844670        5.2112149538       16.5594961988
  C         0.4751854682        6.4775306707       11.1929289857
  C        -0.4649147450        5.4200741146       10.9271299308
  C        -0.5063622574        4.8665091459        9.6503198175
  C         0.4379974226        5.2227751479        8.6761761574
  C         1.3755863767        6.2336107571        8.9411632340
  C         1.2775884014        6.9423548672       10.1526652027
  H         1.9756933438        7.7521134574       10.3380246476
  H         2.1408952053        6.4616388741        8.1623410615
  H         0.4106037951        4.6388266550        7.7326855949
  H        -1.3240721678        4.1675413186        9.4277694716
  H        -1.0274762125        5.0694876352       11.7685045418
