140

  C        13.1956216253        0.4665331773        1.1057447873
  C        14.1949985347        1.2713344968        1.7476733969
  C        15.3308436876        1.7355125486        0.9977284362
  C        16.2504691196        2.5535639330        1.6538478423
  C        17.3650275745        3.1206676700        1.0406255682
  C        14.0264865024        1.6968129614        3.1578949147
  C        13.1490437842        2.7213265660        3.5045247679
  C        13.1387558404        3.2179802294        4.7918628412
  C        14.0307651648        2.6919361798        5.7515836293
  C        14.8111345072        1.5827719990        5.4174532067
  C        14.8264715938        1.1098376653        4.0975365377
  H        16.1972706855        2.7170392708        2.7093855940
  H        18.0429088401        3.7458031944        1.6346236096
  H        12.5141216348        3.0754390708        2.7179742619
  H        12.3817417496        4.0035001917        4.9763784870
  H        13.9568420032        2.9491473955        6.7908916104
  H        15.3628172742        1.0899190331        6.1679442613
  H        15.3579442932        0.1748513308        3.8375076178
  C        13.2350515377        0.3387297651       -0.3669348401
  C        12.0752706833       -0.3568170685       -0.9558949511
  C        10.9437506780       -0.7341257075       -0.2635387192
  C        11.0743754177       -0.7294191856        1.2379890477
  C        12.2501639585       -0.2959643898        1.8699385643
  C        15.3779721510        1.5870150034       -0.4031449793
  C        14.2715552598        0.9876020737       -1.0977531462
  C        14.1711144953        1.3759932981       -2.5058614009
  C        13.3074949863        2.4168283986       -2.8959262447
  C        13.3271691860        2.7745332534       -4.2172882784
  C        14.2279579936        2.1824813168       -5.1310914754
  C        14.9322460406        1.0874095617       -4.7956525993
  C        14.9709306162        0.7169884569       -3.4679256262
  H        15.5593639457       -0.1195427070       -3.1110774300
  H        15.7258575986        0.6765244306       -5.4211055693
  H        14.2662404426        2.5973020341       -6.1671237011
  H        12.7260045561        3.6244968147       -4.5307398950
  H        12.7910559207        2.9048022849       -2.0651347855
  C        16.5371047451        2.2154012515       -1.0475485946
  C        17.4942286393        2.9300494823       -0.3629862674
  H        18.3600152812        3.5076862074       -0.9009879639
  H        16.5609381376        2.1045858827       -2.1371131226
  C        12.3842768649       -0.5003614813        3.3549268717
  C        13.3655126528       -1.4347667314        3.8323771088
  C        13.3689800880       -1.7883759851        5.1947575934
  C        12.4748670326       -1.1262679675        6.0963289115
  C        11.4771758598       -0.2438354410        5.5906018367
  C        11.4537922381        0.1286273053        4.2725467911
  H        10.6953057763        0.8125456921        3.8924442711
  H        10.8403552880        0.1860914192        6.3231339958
  H        12.5528530377       -1.3974973917        7.1815132348
  H        14.1116968814       -2.4830136727        5.6204086513
  H        13.9993064306       -1.9224395842        3.1866146002
  C         9.9675429731       -1.1994335477        1.9841626811
  C         8.8403626966       -1.6281653731        1.3432668935
  C         8.7093876312       -1.7095396809       -0.0415439474
  C         9.7843408040       -1.3513711494       -0.8197201822
  H         9.8132869765       -1.4504009007       -1.8499463733
  H         7.8006325956       -2.0777621352       -0.5222140781
  H         8.0011770321       -1.9954719290        1.9638464928
  H         9.9437375732       -1.2486449900        3.0765485058
  C        12.1899061979       -0.7914199734       -2.3821470443
  C        13.1249345644       -1.7739464371       -2.7525873413
  C        13.2199441651       -2.0891905797       -4.1113204392
  C        12.3534779401       -1.6231284365       -5.0697513125
  C        11.3167161438       -0.6772269126       -4.7065736132
  C        11.3674034642       -0.1494013796       -3.4416322430
  H        10.7696548532        0.7652683150       -3.1799501840
  H        10.6704012838       -0.2684378013       -5.5008666407
  H        12.5230635160       -1.9885039707       -6.0819140526
  H        14.0234277325       -2.7782943072       -4.4251382022
  H        13.7809422877       -2.2419594543       -2.0200684581
  C         9.5016466126        7.5307346464        1.1798768745
  C         8.5263645363        8.2761646250        1.8417520372
  C         7.4400217343        8.8004012683        1.1941525951
  C         6.3991924314        9.5857556436        1.8411093391
  C         5.4009709192       10.2111289032        1.1217909042
  C         8.7614433904        8.6844886205        3.2796320153
  C         9.7227558501        9.7022971254        3.3583839294
  C         9.8584364746       10.4732123293        4.5007808230
  C         9.1036126647       10.1097277924        5.6395710255
  C         8.2648811432        9.0415489340        5.5962273186
  C         8.0309336833        8.3262478673        4.4097910628
  H         6.4303359428        9.6930929403        2.9314501660
  H         4.6429127573       10.6967214214        1.6907715512
  H        10.2691102954       10.0058226464        2.4733893874
  H        10.5241476489       11.3229144267        4.5308101618
  H         9.2925281361       10.7461352963        6.5162954640
  H         7.6487957364        8.7637927147        6.4636735848
  H         7.1280913372        7.7215819246        4.2320190634
  C         9.4678506582        7.5710853720       -0.2960835293
  C        10.6320967931        6.9596676534       -0.9472408262
  C        11.7804632033        6.5047207229       -0.3590254770
  C        11.6845455440        6.3151532301        1.1166478039
  C        10.5823926605        6.7892399803        1.8184689793
  C         7.3498440839        8.7645371039       -0.3100636857
  C         8.4964856420        8.3031260584       -1.0105881429
  C         8.4790284686        8.5682173649       -2.4584513819
  C         9.1896931974        9.7430215103       -2.7623498376
  C         9.1809521178       10.2772560081       -4.0579851321
  C         8.3050971449        9.7244599526       -4.9808397623
  C         7.7020056473        8.4709536771       -4.6877556025
  C         7.8001579397        7.8601589504       -3.3930629916
  H         7.3689269039        6.8765643874       -3.2661378720
  H         6.9704418603        8.0433332238       -5.3851528521
  H         8.2454396721       10.0646224243       -6.0297690617
  H         9.7846756177       11.1020745307       -4.4264388272
  H         9.8097341711       10.1271563569       -1.9260905044
  C         6.1861587159        9.3493247531       -1.0140422525
  C         5.2934379732       10.0821686498       -0.3146941428
  H         4.4544187877       10.5135200868       -0.7514018753
  H         6.0419938217        9.1524466008       -2.0877553083
  C        10.5634385819        6.5529050483        3.2696392575
  C         9.7417075030        5.5557952165        3.7704219768
  C         9.7726556521        5.2175062176        5.1614519942
  C        10.6587751912        5.9129580667        5.9600402657
  C        11.5117626783        6.9456419722        5.5180126921
  C        11.4455803704        7.2250228402        4.1516504725
  H        12.0057472359        8.0011180145        3.6165995823
  H        12.0954824242        7.4950401819        6.2566055874
  H        10.5142988302        5.6254024498        6.9990679505
  H         9.1419314414        4.4004600289        5.4955801451
  H         8.9560978164        5.0368022332        3.2252627984
  C        12.8018650746        5.4985447856        1.6664735169
  C        13.8485918931        5.0807742869        0.9130332319
  C        13.8563868299        5.2289604629       -0.5111756624
  C        12.8598110322        5.8180240885       -1.1130101027
  H        12.7818672453        5.8048243638       -2.1846095498
  H        14.6593742882        4.9088513717       -1.1610878808
  H        14.6378132517        4.5190861856        1.4178645879
  H        12.8884373544        5.4077884424        2.7321146723
  C        10.5491822619        6.7276630165       -2.4322262346
  C         9.8442789168        5.5501058018       -2.8053919474
  C         9.8179195393        5.2436688854       -4.1941993127
  C        10.5675650098        5.9846064466       -5.0912783284
  C        11.2945773640        7.0947862879       -4.6866510117
  C        11.2584265091        7.4888882777       -3.3163444560
  H        11.7416461334        8.3594954873       -2.9972803038
  H        12.0266650929        7.5843955861       -5.4239517550
  H        10.6830839509        5.5893438933       -6.0828458708
  H         9.3158811012        4.3433268366       -4.5326479343
  H         9.2479631345        4.9418323744       -2.1025276466
