140

  C         3.6002224985        0.0506055264       14.5350328313
  C         4.6181224023        0.8227151878       15.1450994134
  C         5.7293156488        1.3169155305       14.4682146166
  C         6.7324335466        2.1332739041       15.0488781240
  C         7.7479618904        2.6712926179       14.3472187438
  C         4.6514524489        1.1086212915       16.6743607697
  C         3.8128260890        2.0608294451       17.2543637134
  C         3.8964128062        2.3618995335       18.6218491166
  C         4.8846947062        1.7655642756       19.4137634622
  C         5.6914807780        0.7194739431       18.9303891132
  C         5.5309286578        0.3616886750       17.5568830654
  H         6.7337802478        2.2564564213       16.1492516708
  H         8.6105428653        3.1657205622       14.7398209850
  H         3.1035162329        2.4319347685       16.5237075127
  H         3.2406298831        3.0731302430       19.1723214485
  H         4.9103920050        2.0046238119       20.4719018317
  H         6.4595213880        0.1991107078       19.4673353285
  H         6.1591764698       -0.4433557308       17.1472866316
  C         3.5105514626        0.1018717128       13.1083742279
  C         2.4577755883       -0.5643650133       12.4061055158
  C         1.4081189795       -1.2463177852       13.1980988468
  C         1.5809540642       -1.3138041563       14.5881865097
  C         2.6236539627       -0.6397086415       15.1927146864
  C         5.7261090547        1.1897685231       13.0037910973
  C         4.6320582886        0.6335788981       12.3853039423
  C         4.5007207130        1.0862781766       10.9955279678
  C         3.7336648580        2.2255470042       10.6241791573
  C         3.7251343274        2.6607862801        9.3165235680
  C         4.5107039097        2.1448829800        8.3417643502
  C         5.2132178920        1.0414919371        8.6699990469
  C         5.3270332422        0.5681700190        9.9579883524
  H         5.9187556806       -0.3109554139       10.0318264903
  H         5.8875690065        0.6059382613        7.8981843714
  H         4.4574576740        2.5148759724        7.2984576712
  H         3.1114369475        3.5510328538        9.1605796881
  H         3.0310100549        2.5595490272       11.3440081165
  C         6.6987941727        1.9402374789       12.2789643726
  C         7.6480959394        2.6647209365       12.9332972035
  H         8.4033651238        3.2321941131       12.3623918842
  H         6.6901235325        2.0259603991       11.1938993812
  C         2.5581349362       -0.8131355722       16.6664102498
  C         3.4286583745       -1.7382499211       17.2657987934
  C         3.4660376825       -1.9383649203       18.6122855538
  C         2.5093105488       -1.3959886657       19.4276470681
  C         1.5811258328       -0.5340862387       18.8787662560
  C         1.6482162929       -0.2126945790       17.5253324712
  H         0.9683089896        0.5120762236       17.0827325301
  H         0.8845351600       -0.0779379102       19.6557856521
  H         2.4646175636       -1.6603982502       20.4296441762
  H         4.1188819415       -2.6956399269       19.0274652664
  H         4.1361347031       -2.2252148668       16.6196072924
  C         0.6475447357       -2.0445147062       15.3986896240
  C        -0.4343499898       -2.6666820357       14.7576809102
  C        -0.6303489360       -2.6238903309       13.3445835880
  C         0.2878958064       -1.9404879710       12.5834121842
  H         0.2253333204       -2.0877265155       11.5026884838
  H        -1.4776489402       -3.2333987776       12.8754230091
  H        -1.0872060606       -3.3075209920       15.3591252529
  H         0.8384460142       -2.1796178326       16.4744929604
  C         2.5061207142       -0.8973353485       11.0087406455
  C         3.2389256161       -2.0150102039       10.5764071562
  C         3.2379534131       -2.4224241168        9.2351603279
  C         2.6212888907       -1.7255787476        8.2385894226
  C         1.8776745038       -0.5808899025        8.6422276316
  C         1.8010621100       -0.2149121943        9.9783080513
  H         1.4224686459        0.8445817646       10.2111457456
  H         1.4782643494        0.1310365175        7.8798254927
  H         2.7951041042       -2.0443894880        7.2194594254
  H         3.9649039127       -3.1933646012        9.0062199017
  H         3.7929270711       -2.4414919125       11.3698280157
  C         0.1774577881        7.1816314409       14.8082138604
  C        -0.9023078202        7.8211337391       15.5097484879
  C        -2.0614558518        8.2680157919       14.7511912391
  C        -3.1859043742        8.9972258936       15.3797116605
  C        -4.1949847854        9.5425711325       14.6248853614
  C        -0.9961658619        8.1320724683       16.9469814567
  C        -0.0173275335        9.0162173109       17.4465668440
  C        -0.0084346652        9.4583450210       18.7550749507
  C        -0.9241237673        8.9549341439       19.6647925954
  C        -1.9712018098        8.1554649470       19.2136000879
  C        -1.9644967359        7.6838062858       17.8786547679
  H        -3.1745808753        9.1709323314       16.4413372407
  H        -5.0393305942       10.0428853583       15.0861044114
  H         0.7669160637        9.3499880123       16.7499956006
  H         0.7766140978       10.1147531396       19.1063436385
  H        -0.8821870181        9.2291515517       20.7033937256
  H        -2.7047906954        7.8060839755       19.9095129246
  H        -2.7037674741        6.9833963634       17.4935851531
  C         0.1388156443        7.2642745489       13.2936484479
  C         1.1688262829        6.5117196875       12.5822707546
  C         2.2985278258        5.9217870624       13.3083715600
  C         2.3355976810        5.9777846346       14.7510056865
  C         1.2530515302        6.5061489246       15.4739178276
  C        -2.0561560743        8.2509205484       13.2848045179
  C        -0.9307396865        7.8252574784       12.5556779139
  C        -0.8026701248        8.1697888856       11.1045438238
  C         0.0365683611        9.3147794575       10.9308953497
  C         0.0096904423       10.0350764356        9.7397012679
  C        -0.7111492138        9.5235138422        8.6375850766
  C        -1.5793985109        8.4620879451        8.7875358234
  C        -1.5574796610        7.7352439370       10.0672056584
  H        -2.3694916226        7.0171428391       10.2729839203
  H        -2.2005496501        8.0078255215        8.0673984031
  H        -0.6781684942       10.1051622396        7.7421859707
  H         0.3777683082       11.0551468983        9.6124374284
  H         0.6211899917        9.7062043018       11.7292470128
  C        -3.1232658387        8.7699408272       12.6017373513
  C        -4.1950115088        9.3460343529       13.2449307504
  H        -5.0123251909        9.7863478327       12.6910324600
  H        -3.1439889403        8.8061292601       11.5094088810
  C         1.2108462703        6.2368498948       16.9485784066
  C         0.4381246777        5.2121359903       17.5461519835
  C         0.6127523251        4.9008871569       18.9065049170
  C         1.5052243598        5.6275028965       19.7011694835
  C         2.2501215643        6.6576396379       19.1190363083
  C         2.1590892411        6.8724311985       17.7543752316
  H         2.6565399031        7.6984466630       17.2328164394
  H         2.9612240517        7.1912524425       19.7637992212
  H         1.5785008581        5.4844656848       20.7789831845
  H         0.0256677634        4.0633506088       19.3381021353
  H        -0.2512574780        4.6538575804       16.9070876213
  C         3.3678002147        5.2829606010       15.4670020748
  C         4.3121704464        4.5730717362       14.7139280542
  C         4.2759906594        4.4507656944       13.3200792872
  C         3.2731088350        5.0976147487       12.6441850409
  H         3.0855601096        5.0867867456       11.5852178935
  H         5.1429937659        3.8416822609       12.9762129112
  H         4.9863004432        3.9234145395       15.2414209524
  H         3.3893217850        5.2961965718       16.5648910589
  C         1.0450230678        6.0020047828       11.1536261011
  C         0.2528413902        4.8930234287       11.0714129379
  C        -0.0720272883        4.3304792480        9.8498499649
  C         0.4004285147        4.9385897927        8.7167505870
  C         1.2591573919        6.0963589290        8.7530172307
  C         1.5620871902        6.6476748458       10.0175358644
  H         2.1221487499        7.5997668637       10.0902376474
  H         1.6562081557        6.4877632843        7.8252702685
  H         0.1722494838        4.5210870279        7.7409613194
  H        -0.8242837403        3.5823022221        9.7538364311
  H        -0.1923412619        4.5319083103       11.9824781014
