140

  C         3.2156449775        0.1562314500       14.6259362114
  C         4.2959962448        0.6753446320       15.3418141762
  C         5.3846835142        1.3039527370       14.6450001654
  C         6.4749337933        1.9123677819       15.3333293281
  C         7.5397003926        2.5778887640       14.6849252512
  C         4.2095824421        1.0127178993       16.8065552697
  C         3.6541892385        2.2599469077       17.1354867420
  C         3.6055781773        2.7339134564       18.5108716269
  C         4.3198048338        2.0614700360       19.4622500257
  C         4.9081444041        0.8319917586       19.1359544661
  C         4.7646548222        0.2587686294       17.8568700624
  H         6.5371620899        1.9553864929       16.4950041523
  H         8.3330458886        3.1382263622       15.1812606989
  H         3.2343297021        2.8061110645       16.3107004065
  H         3.1421850878        3.7051808591       18.7883861785
  H         4.4022467733        2.3365055728       20.4678800071
  H         5.3359428577        0.3129353987       19.9800362544
  H         5.1631448206       -0.7433667274       17.6769877476
  C         3.2124859687        0.2494041992       13.1778840977
  C         2.1753880737       -0.4334810035       12.4937764022
  C         1.0265515047       -0.9219283008       13.1939498208
  C         0.9780559408       -0.8995482964       14.6134814003
  C         2.1681208896       -0.5101349277       15.2811159410
  C         5.4249192613        1.3675418853       13.1476607843
  C         4.2913471444        0.9290439633       12.5104277851
  C         4.1429267443        1.3720359424       11.1181647675
  C         3.3620614415        2.5348187566       10.8261973907
  C         3.1953390375        3.0654693854        9.5470868586
  C         3.8970644722        2.4630702594        8.4858306385
  C         4.8501169573        1.4712414552        8.7716964136
  C         4.9019954820        0.8877872970       10.0613928769
  H         5.5636972289        0.0100920136       10.2121245422
  H         5.4850133253        0.9849060649        8.0317219829
  H         3.8529508903        2.8656507694        7.4419945153
  H         2.5396113517        3.9175172795        9.4126819706
  H         2.7046814050        3.0000892078       11.5296414817
  C         6.6339423271        1.9934957879       12.4783058286
  C         7.5831331015        2.6330733812       13.2208123824
  H         8.3653635918        3.2489909169       12.7998904019
  H         6.7351589993        1.8920207266       11.4038634973
  C         2.3504206391       -1.1184293754       16.7070497396
  C         2.9257155309       -2.3429913238       16.9848443907
  C         2.9549503667       -2.7124057636       18.3379907140
  C         2.4086414852       -2.0091509708       19.3836571663
  C         1.7177677382       -0.8076955930       19.0608633450
  C         1.6725325666       -0.4249857759       17.7074552102
  H         1.1197017039        0.4569998197       17.4358592516
  H         1.1821696490       -0.2691408864       19.8013634544
  H         2.3314689709       -2.3331110043       20.3860497003
  H         3.5026787579       -3.6348689266       18.5526467949
  H         3.4749968580       -2.9875645789       16.3067003258
  C        -0.1161187071       -1.6064740805       15.2826659250
  C        -1.1650688075       -2.1666722459       14.5712984902
  C        -1.0995564887       -2.1059429513       13.1861184260
  C        -0.1133650444       -1.4599397496       12.4689322852
  H        -0.2986614605       -1.1964205826       11.3951728070
  H        -1.9281938899       -2.5086235849       12.6647443901
  H        -1.9857232546       -2.5836691769       15.1307284156
  H        -0.0375305124       -1.7108454750       16.3330918414
  C         2.2426756950       -0.7321202958       11.0410609043
  C         2.9058599796       -1.9439332978       10.7154095484
  C         2.9177877744       -2.4110238046        9.4137969458
  C         2.2500689329       -1.6904802842        8.3815160693
  C         1.6264215087       -0.4610866308        8.6985314924
  C         1.6257383973       -0.0193121495       10.0525057324
  H         1.1945994637        0.9821891817       10.3519631542
  H         1.1073997562        0.1218023810        7.9835117348
  H         2.1429118444       -2.2177271902        7.4139754098
  H         3.3834732720       -3.3743675954        9.0528546608
  H         3.4727846108       -2.3366634655       11.5324965186
  C        -0.3122934201        7.2874309004       14.7190562212
  C        -1.3296667595        8.0982327327       15.4056054737
  C        -2.4268221807        8.6703735527       14.6821024149
  C        -3.6090411262        9.0144409257       15.3444791914
  C        -4.7518663139        9.3919602172       14.7337730967
  C        -1.2637047679        8.5213575562       16.8234251049
  C        -0.5494473419        9.6689165015       17.2211396662
  C        -0.4993273462       10.0216027461       18.6170241920
  C        -1.0876922452        9.1952644021       19.6109858283
  C        -1.8210571368        8.0766057597       19.2158676050
  C        -1.8485241170        7.6989126268       17.8648162776
  H        -3.6340072307        8.9872759754       16.4285470304
  H        -5.6207307210        9.7217173571       15.2616987506
  H        -0.0469474707       10.2756718673       16.4384933668
  H        -0.0918445258       10.9607574866       18.9876726852
  H        -1.0341858913        9.5504666492       20.6347601271
  H        -2.2886921471        7.4283345503       19.9502093664
  H        -2.3022958073        6.7619930124       17.5474425540
  C        -0.3055595508        7.2881334370       13.2537770689
  C         0.7619899160        6.5497274036       12.6430382243
  C         1.8669608812        6.0043767902       13.4013063869
  C         1.8508794858        6.0010162170       14.8577951641
  C         0.6639020780        6.5592222841       15.4868750398
  C        -2.4330016886        8.5778719087       13.2288786708
  C        -1.3457561379        7.9830572159       12.5453706626
  C        -1.3962288490        8.2759986002       11.0584490834
  C        -0.8057004134        9.4694428517       10.6483705289
  C        -0.8910796796        9.8474504415        9.3172563063
  C        -1.5646753994        9.1304921233        8.3739782732
  C        -2.1464247735        7.9345110440        8.8481961131
  C        -2.0548382161        7.4895828424       10.1587825515
  H        -2.5249087199        6.5413638312       10.4132024648
  H        -2.8006792097        7.4585185587        8.1411814339
  H        -1.6418014654        9.4760167729        7.3505085193
  H        -0.4962305774       10.8296719322        9.1013072945
  H        -0.3304772160       10.1037394470       11.3628978389
  C        -3.5861730879        9.0629958728       12.5940923626
  C        -4.6474330994        9.5260703086       13.3251886933
  H        -5.5468848497        9.9028676959       12.8207459311
  H        -3.6756512754        9.1438647859       11.5189784812
  C         0.5260010140        6.3258625014       16.9903891502
  C        -0.3178691897        5.2727071377       17.3589233422
  C        -0.3079747052        4.8123238242       18.6871779088
  C         0.6288278260        5.3940724509       19.5868609965
  C         1.4249745508        6.5567312434       19.2316465292
  C         1.3782549110        6.9270829924       17.9216371384
  H         2.0167132220        7.7395187323       17.5952984603
  H         2.0818967607        6.9751176698       19.9933452302
  H         0.5942472642        5.0982884428       20.6007603232
  H        -1.0391931199        4.0840285058       19.0351951799
  H        -0.8533624758        4.7975476545       16.5409898409
  C         2.9386447298        5.4727364610       15.5425942507
  C         3.9834898836        4.8558056517       14.9019615308
  C         3.9375614827        4.7233631993       13.4589931612
  C         2.9659459787        5.3420955292       12.7128763842
  H         2.9680047440        5.2508034262       11.6428324874
  H         4.7187837603        4.1312581069       13.0261263395
  H         4.7447060748        4.4102930851       15.5229350325
  H         2.9995943460        5.4313610487       16.6230779321
  C         0.6998168296        6.1974524846       11.2360575722
  C        -0.0521457952        5.1207019422       10.7505214238
  C         0.0226709553        4.6239017178        9.4466161013
  C         0.8052279557        5.3956751897        8.5115646786
  C         1.5773423980        6.4650753343        8.9505278184
  C         1.5491986170        6.8414627433       10.2896313888
  H         2.1054524399        7.7131669182       10.5901997930
  H         2.2430398605        6.9773841430        8.2452895744
  H         0.8740615614        5.0343778904        7.5055442011
  H        -0.5148748269        3.7160331874        9.1367659468
  H        -0.7123595555        4.4803378613       11.4003280414
