140

  C        15.5136784136       -0.0518481602        2.3159188600
  C        16.6203993966        0.6282862493        2.9941643699
  C        17.6917828220        1.1533034286        2.2761500989
  C        18.7778025961        1.9512289763        2.9148871186
  C        19.6817239023        2.6749883883        2.2221599301
  C        16.5505927254        0.9785312024        4.4388957627
  C        15.7738897542        2.0585730843        4.8069115113
  C        15.6723813418        2.4574143499        6.1521766878
  C        16.6616926725        1.9489425452        7.0552248334
  C        17.5037217601        0.9049543148        6.6502480091
  C        17.4572937945        0.4541003415        5.3512169237
  H        18.8514128912        1.8754967037        3.9969960899
  H        20.4848529567        3.1655874859        2.8305467532
  H        15.0254229558        2.5075000203        4.0976901550
  H        14.9966149415        3.3074429507        6.4928637368
  H        16.6843786352        2.2881177085        8.0886577982
  H        18.0933087101        0.4577222200        7.4194554153
  H        17.9772694686       -0.4104298524        5.0570762970
  C        15.4945040509       -0.0069203905        0.8324746825
  C        14.3935024259       -0.7296354979        0.1677688929
  C        13.3442028724       -1.2901223666        0.9073133257
  C        13.3832396635       -1.2881162861        2.4385992009
  C        14.4930233479       -0.7577602969        3.0577549429
  C        17.6531629124        1.2905556869        0.8391041112
  C        16.5360772580        0.6923291994        0.1302389339
  C        16.4301043159        1.1333036062       -1.2924392818
  C        15.5647358290        2.2384100404       -1.4900059558
  C        15.4334462447        2.8128184539       -2.6900774801
  C        16.1269070901        2.3099025354       -3.7954318189
  C        16.9059162728        1.1297562821       -3.6609189449
  C        17.1255265204        0.5616925083       -2.3758596140
  H        17.7267063607       -0.3701815140       -2.2922716093
  H        17.2197616184        0.6301629989       -4.5653094947
  H        16.1323683970        2.7814370851       -4.7812832828
  H        14.7883928681        3.6428789697       -2.8384867929
  H        14.9685475347        2.5857581226       -0.6171597049
  C        18.7003947489        2.0008389025        0.1746604779
  C        19.7693267635        2.6523474861        0.8283938541
  H        20.4886313304        3.2038494634        0.2085260153
  H        18.7641335781        2.0369738550       -0.9040130387
  C        14.5932156414       -1.0572238321        4.6016067587
  C        15.5121024734       -2.0347051521        4.9263524222
  C        15.6567145423       -2.4459788525        6.2463422712
  C        14.7510718957       -1.9389880153        7.1977760740
  C        13.8796510897       -0.8798353360        6.8681239954
  C        13.7315239844       -0.4576948866        5.5503019882
  H        13.1412515846        0.3998473723        5.1601712383
  H        13.2616365274       -0.5338588088        7.6816805746
  H        14.8204132363       -2.3522300372        8.2184564969
  H        16.3299876016       -3.2307497873        6.4427117336
  H        16.0436886950       -2.5478473614        4.1656773577
  C        12.4282268422       -1.9978674163        3.1647692335
  C        11.3476140485       -2.5996398139        2.5102526277
  C        11.3663550172       -2.6589078961        1.0509609079
  C        12.3452065007       -2.0735412565        0.2969931477
  H        12.1652420223       -2.2376157179       -0.7889455768
  H        10.5780046137       -3.3049599477        0.6364921610
  H        10.6212117300       -3.1766018636        3.0981359424
  H        12.4536275031       -1.9845735600        4.2474939226
  C        14.5047181655       -1.1243733361       -1.2807314420
  C        15.2191504349       -2.2847181383       -1.7190612343
  C        15.2350266175       -2.6769926383       -3.0747529122
  C        14.6314327061       -1.8880219171       -4.0215461416
  C        13.7794763640       -0.8992664599       -3.5954923631
  C        13.7665960278       -0.4834785613       -2.2763457082
  H        13.0404598337        0.3391705578       -2.0272565031
  H        13.2329998770       -0.1993285171       -4.1919277865
  H        14.6788339076       -2.1883087389       -5.1268731948
  H        15.8498062841       -3.5231859605       -3.3697873308
  H        15.7272936883       -2.9571055956       -0.9342257546
  C        11.7464551771        7.3857256098        2.3304323751
  C        10.6840737541        8.0743376288        3.0196705053
  C         9.6196354980        8.5642839574        2.1862273593
  C         8.4208007339        9.1348379470        2.7762496623
  C         7.4967021712        9.7160462388        1.9884059128
  C        10.6760403294        8.3791070375        4.5312911102
  C        11.4475466881        9.5234452930        4.9095300298
  C        11.3875938855       10.0596819443        6.1712576557
  C        10.7835628709        9.2982986418        7.2136716229
  C        10.0879183484        8.1129429926        6.9130592184
  C        10.0541826829        7.5951881136        5.5169771182
  H         8.4180438930        9.1277008532        3.8131726869
  H         6.6099251762       10.0928157605        2.4414863052
  H        11.9870656282       10.0361084518        4.1475499618
  H        11.9948423247       10.9724900024        6.4446620046
  H        10.8626894383        9.6088012743        8.2500973143
  H         9.7913169096        7.4752891167        7.7466578046
  H         9.4531880675        6.7096054938        5.3599853990
  C        11.8593644966        7.3699058758        0.8074693755
  C        12.8950362494        6.5687936656        0.1899304641
  C        13.8143497450        5.8712700999        1.0008885535
  C        13.7804083485        6.0400291414        2.4802962006
  C        12.7023537381        6.6876070291        3.0984029395
  C         9.7512052224        8.6541917413        0.7819784565
  C        10.9322937742        8.1279284921        0.1127325245
  C        11.0241011676        8.3731709758       -1.3329139741
  C        11.7442734186        9.4885682080       -1.7619847665
  C        11.6324062543        9.9277937745       -3.1246333372
  C        10.7282303714        9.2818037769       -3.9608580400
  C         9.9370309909        8.2423795082       -3.5069526709
  C        10.1411375599        7.6858353279       -2.2097071074
  H         9.6145883233        6.7943098860       -1.8216406686
  H         9.3104433908        7.6767421835       -4.2121110052
  H        10.6194051362        9.6130645231       -5.0054799022
  H        12.1780069314       10.8053360490       -3.5258674439
  H        12.4905987328        9.8890507140       -1.0738559322
  C         8.7645123137        9.2959120518        0.0083211123
  C         7.6133698392        9.7287796473        0.5863782213
  H         6.7647186866       10.3248455479        0.0877306573
  H         8.8574855569        9.2211965547       -1.0582465452
  C        12.5283646773        6.4499654580        4.5808364350
  C        11.9376971829        5.2022649319        4.8850255658
  C        11.9736054042        4.7122284186        6.1879902812
  C        12.8683772043        5.3435996267        7.1083857538
  C        13.5641124411        6.4795489679        6.7369396096
  C        13.3376922369        7.0647076552        5.4964813140
  H        13.8974796122        7.9852978718        5.2732340940
  H        14.3143392881        6.8942868296        7.4637237265
  H        12.9827334222        5.0423750211        8.1892708908
  H        11.4712213827        3.8143889448        6.5254964912
  H        11.3223367729        4.7555929804        4.0905824581
  C        14.9106842240        5.4836875091        3.1726118730
  C        15.8872453934        4.8061004342        2.5403465389
  C        15.8389569940        4.6180571579        1.0896890948
  C        14.8253639871        5.1515901265        0.3697914091
  H        14.8810580459        5.1343671516       -0.6810658690
  H        16.6553472829        4.0878235593        0.6287041621
  H        16.8448080088        4.6261783917        3.0413200048
  H        14.9436258840        5.5931449277        4.2313536085
  C        12.7829963120        6.2567789680       -1.2546725600
  C        12.2172962485        4.9752525142       -1.5869705975
  C        12.1145088457        4.5778203566       -2.9060515091
  C        12.8255187383        5.2557893617       -3.8529134333
  C        13.3915449703        6.5036180708       -3.5291627740
  C        13.4636500631        6.9532909758       -2.2413833636
  H        14.1481566629        7.6648235460       -1.9287402338
  H        13.9424744448        7.1236766085       -4.2468838182
  H        12.8367153816        4.8742836013       -4.8884834830
  H        11.5354208957        3.6538313106       -3.0410076737
  H        11.6794286750        4.4332260432       -0.7418666416
