140

  C        14.3378953389        0.0798261556        1.1484866129
  C        15.3554674215        0.8222081309        1.7992181406
  C        16.4682902501        1.3623364375        1.1185924962
  C        17.5413707457        2.0757971901        1.7946563783
  C        18.5054006109        2.7251131595        1.0482173353
  C        15.1284730290        1.1328339963        3.2050558667
  C        14.1439668553        2.0835708706        3.5064774974
  C        14.1698904708        2.6715031637        4.7717960754
  C        15.2188547803        2.4011728111        5.6681181084
  C        16.1096918398        1.3732964981        5.3801242418
  C        16.0164911668        0.7244396327        4.1525967428
  H        17.4731717195        2.2114211564        2.8594367823
  H        19.2636235014        3.2986514380        1.5664621209
  H        13.5852992834        2.4138958943        2.6255514686
  H        13.6236935443        3.5772923838        5.0151783096
  H        15.2532894796        2.8515092939        6.6438452485
  H        16.9311420487        1.0074183381        6.0180976817
  H        16.7697372858       -0.0644293625        3.9956586570
  C        14.3786714936        0.0353144393       -0.2846687097
  C        13.3563914077       -0.7552506565       -0.9946510283
  C        12.2336129260       -1.2780632965       -0.3108786440
  C        12.1761351290       -1.2776455838        1.1189537211
  C        13.2896969017       -0.6694578047        1.8208348101
  C        16.5708893270        1.2153371647       -0.3562091320
  C        15.4545946304        0.6482863884       -1.0220170967
  C        15.2604045899        1.0165874179       -2.4345190789
  C        14.2433778850        1.9175605217       -2.8242825417
  C        14.0213398765        2.2530769992       -4.1539610983
  C        15.0513971977        2.0281884967       -5.0840285034
  C        16.0626222399        1.1501257584       -4.7383035221
  C        16.1209181467        0.5886222671       -3.4439565185
  H        16.8419080766       -0.1418942055       -3.1495996184
  H        16.9156381324        0.9090716535       -5.4269265055
  H        14.9950976117        2.3886545663       -6.1041234048
  H        13.1064114778        2.8383002038       -4.3561998589
  H        13.5759840813        2.3656588002       -2.1269304266
  C        17.6622233365        1.8603178508       -1.0637657539
  C        18.5530061086        2.5987864491       -0.3251126903
  H        19.4497981276        2.9919938008       -0.7592359461
  H        17.8406455377        1.7272021055       -2.1096370035
  C        13.3980612680       -1.0489154212        3.2821704012
  C        14.3926906721       -1.9434027613        3.6668321070
  C        14.5484397700       -2.2856687513        5.0420315536
  C        13.5875206145       -1.8045807106        5.8897325527
  C        12.5651754432       -0.8972619006        5.4714482790
  C        12.5443351266       -0.4445086611        4.1960250637
  H        11.9471531201        0.3793307338        3.9369153191
  H        11.8413224752       -0.4920417669        6.2069391924
  H        13.4531318177       -2.1715793902        6.8817340785
  H        15.2331717517       -3.0422403428        5.3207387357
  H        14.9790122957       -2.3417585466        2.8284700912
  C        11.0048145327       -1.7406361525        1.8628188698
  C        10.0332678586       -2.3801176063        1.1116168888
  C        10.1013719378       -2.4931741320       -0.2980983392
  C        11.1600204368       -1.9848805940       -0.9715625328
  H        10.9542994930       -2.0366307454       -2.0517488384
  H         9.2580608054       -2.9226435093       -0.9110257170
  H         9.1626617160       -2.9341431566        1.4961182110
  H        10.8774453355       -1.5588403888        2.9105899915
  C        13.4494070035       -1.1818928982       -2.3980984676
  C        14.3472219415       -2.1639828659       -2.7546674222
  C        14.2232802057       -2.8500221457       -3.9892780834
  C        13.2789280072       -2.4342200597       -4.9467275828
  C        12.4587399458       -1.3095805138       -4.6424855689
  C        12.4961763013       -0.7379053415       -3.3891553932
  H        11.8659159297        0.1346296675       -3.1846356543
  H        11.8693554182       -0.9069994182       -5.4756957807
  H        13.1404793241       -2.9158410655       -5.9054080848
  H        14.9118972949       -3.6029656535       -4.2877886195
  H        15.1034984848       -2.4472241331       -2.0853402837
  C        10.6540499261        7.1143616328        1.1795111264
  C         9.6289741942        7.8024677039        1.9086083936
  C         8.5768465767        8.4869991181        1.2185754680
  C         7.6117261580        9.3065627105        1.8349317898
  C         6.6443573075        9.8702006828        1.0865027257
  C         9.8592655698        8.3057896595        3.2953152417
  C        10.7095386776        9.4077734757        3.5310086313
  C        10.8904728458        9.9219681118        4.8363380352
  C        10.1199955823        9.3684937964        5.8822683726
  C         9.2845074358        8.2541965962        5.6703684090
  C         9.0949100730        7.7857844621        4.4130971938
  H         7.5971743207        9.4366154342        2.9228076605
  H         5.9050215508       10.4198432207        1.7541242618
  H        11.4264265248        9.7100783863        2.7559838909
  H        11.5808041754       10.7695827580        5.1388641808
  H        10.2748966898        9.7368025951        6.9646904806
  H         8.7526140304        7.8764137656        6.5438650702
  H         8.4226461247        6.8620313184        4.3435407071
  C        10.6303642402        7.0908546737       -0.2960656420
  C        11.6016078361        6.3873170766       -1.0390104901
  C        12.7202865858        5.8726373927       -0.3392136340
  C        12.7112659630        5.8426678726        1.1008484298
  C        11.6291376618        6.3825361726        1.8456091444
  C         8.4813570827        8.4133123070       -0.2381021561
  C         9.5860822428        7.7981102718       -0.9434341358
  C         9.7218196781        8.0735992797       -2.3757899592
  C        10.4818414757        9.1965972494       -2.8214915409
  C        10.3576420475        9.6025036351       -4.1144852305
  C         9.5676749356        8.9181143016       -4.9899995010
  C         8.7733894629        7.8701644385       -4.6315830018
  C         8.9656742504        7.4089678562       -3.3441264131
  H         8.3926311899        6.5365706969       -2.9867824598
  H         8.0819450523        7.4561911349       -5.3112680831
  H         9.3317062599        9.3946955451       -5.9551414391
  H        10.9329650853       10.4289061764       -4.4556773149
  H        10.9819892194        9.7960092446       -2.0883812028
  C         7.4263219544        9.0303466850       -0.9918152920
  C         6.4950781648        9.8526695730       -0.2941216346
  H         5.6624223999       10.3066261236       -0.8383430300
  H         7.5211500881        9.2242669751       -2.0845077977
  C        11.5648320559        6.1566939317        3.3996929754
  C        10.6028073757        5.2345272332        3.8236756128
  C        10.5708525751        4.8109578139        5.1515895756
  C        11.4603015039        5.4119802898        6.0677624123
  C        12.4154617760        6.3574182766        5.7028144040
  C        12.3997304562        6.7267093113        4.3740175419
  H        13.1449521650        7.4261755442        3.9686355682
  H        13.1613114333        6.8310442911        6.3332238842
  H        11.2638248047        5.3669632405        7.1314321480
  H         9.8056004118        4.1039967123        5.4472364871
  H         9.9516768327        4.8727748133        3.0708720395
  C        13.7355904017        5.0884934090        1.7613830563
  C        14.7847193937        4.5099370596        1.0880878145
  C        14.7588694474        4.4687222381       -0.3491277333
  C        13.7794206018        5.1335389398       -1.0088568326
  H        13.7011213710        5.1419143713       -2.0944919872
  H        15.4690178094        3.8679255760       -0.9439587051
  H        15.5516793486        3.8982874137        1.6177530548
  H        13.6792501343        4.8617588640        2.8074712796
  C        11.5125589714        5.9997629649       -2.4817194433
  C        10.8401569175        4.8244502447       -2.7624990729
  C        10.5995436036        4.4034162898       -4.1125676568
  C        11.1646690685        5.2138175064       -5.0958472033
  C        11.9801265674        6.2996245727       -4.8362644575
  C        12.1554104031        6.7321761714       -3.5356391426
  H        12.7982602440        7.5170475917       -3.1682469799
  H        12.4640534403        6.8069530774       -5.7022175962
  H        11.0119482492        4.9857535806       -6.1633183143
  H        10.0218914005        3.5214707075       -4.3271660664
  H        10.5743292107        4.1039887643       -1.9618830931
