140

  C         4.4539125888       -0.6868684175       13.9763015873
  C         5.4648459480        0.1121068583       14.5565937487
  C         6.5286021472        0.5008567556       13.7315141478
  C         7.6774487068        1.1030972072       14.3737855917
  C         8.7553658593        1.5540435318       13.6495608661
  C         5.4564397492        0.4410315183       16.0690154298
  C         4.6973073388        1.5204480442       16.4757892499
  C         4.6639755572        1.8422700528       17.8491814189
  C         5.6135598105        1.2176466366       18.7468029788
  C         6.3633800310        0.1450649464       18.3132138043
  C         6.3074994163       -0.2292961797       16.9779978343
  H         7.6380451842        1.2492743991       15.4820967713
  H         9.6394341058        1.8996612548       14.2060700516
  H         4.1587139745        2.0601796142       15.7305302314
  H         3.9850018019        2.6940079694       18.1388527915
  H         5.6374410578        1.4448220570       19.8085455175
  H         6.9950188551       -0.5034089944       19.0028766237
  H         6.9668744289       -1.0471707492       16.5996709779
  C         4.4448177860       -0.8731839712       12.4365573476
  C         3.4079377628       -1.6840495128       11.7969827543
  C         2.4329065268       -2.2380982860       12.6822092757
  C         2.5038928023       -2.1770252284       14.1176751992
  C         3.5155026600       -1.4676705850       14.7686533969
  C         6.5254577356        0.4443463439       12.2635520937
  C         5.4368247205       -0.2170642193       11.6008841485
  C         5.1838145308        0.2054579097       10.1713560483
  C         4.5735232020        1.4530250925        9.7941676966
  C         4.7110246281        1.9393168447        8.4749234538
  C         5.5077825775        1.2988410004        7.5367187808
  C         5.9761060517        0.0224896033        7.8137053617
  C         5.8759020251       -0.4978953321        9.1517548650
  H         6.3138737145       -1.4760026173        9.4539845196
  H         6.4229144122       -0.5264077445        6.9836270332
  H         5.7621768431        1.7855082044        6.5420221445
  H         4.2962568871        2.9043670660        8.1297913649
  H         4.1667399268        2.1279862452       10.4826863966
  C         7.5754123648        1.0472663645       11.5822709958
  C         8.7174625179        1.5608791110       12.2170942041
  H         9.5583031355        1.9045842946       11.6336478069
  H         7.3978993414        1.1267500280       10.5087299321
  C         3.6615063784       -1.8449836240       16.2364277175
  C         4.5942221077       -2.8733785743       16.4987926164
  C         4.4832358129       -3.4677979322       17.7800881790
  C         3.4734147267       -3.0803295829       18.6841172288
  C         2.6952576232       -1.9636976151       18.4504771670
  C         2.7767604653       -1.4159467600       17.1806454315
  H         2.1582761225       -0.4963971192       16.9578271246
  H         1.9689382309       -1.6063625555       19.1698005540
  H         3.3589410756       -3.6513702116       19.5804876051
  H         5.1069043352       -4.3185861034       18.0954755106
  H         5.2035691009       -3.2918223435       15.7526608764
  C         1.5970946364       -2.9627996167       14.8823808463
  C         0.6138550580       -3.6938253615       14.1770481869
  C         0.4512677253       -3.6643420953       12.7795295814
  C         1.3546760084       -2.9580910531       12.0341561764
  H         1.3543463298       -3.0647007402       10.8975290291
  H        -0.1859246425       -4.3782277610       12.3259966285
  H        -0.0224843047       -4.3262460532       14.7736345145
  H         1.7419784612       -3.0752015925       15.9623559926
  C         3.3468875812       -1.9709843659       10.3353663435
  C         3.9376462060       -3.1614222899        9.8171618141
  C         4.1057717317       -3.3538193760        8.4087084571
  C         3.5115390305       -2.4102781670        7.5994484036
  C         2.7422255060       -1.2765066550        8.1110045310
  C         2.7507664305       -1.0169188105        9.4790446539
  H         2.3091169779       -0.0831033663        9.7903219147
  H         2.3298253564       -0.5541669704        7.4301579067
  H         3.8212637668       -2.5097936097        6.5255077299
  H         4.6420438754       -4.1779575495        8.0161795625
  H         4.2908944759       -3.9243577187       10.5098735321
  C         1.1519997428        6.2365243013       13.7732385451
  C         0.1814120980        7.0634879937       14.4263353805
  C        -0.9071500287        7.5668743008       13.7439214889
  C        -2.0337652247        8.1877303846       14.4348863233
  C        -3.2130642322        8.5215505253       13.7500788811
  C         0.2908945289        7.2959597191       15.9151448529
  C         1.2345181142        8.1452529105       16.5293597978
  C         1.0362443382        8.5333405544       17.8980859664
  C         0.0056128336        7.9731116211       18.6532576645
  C        -0.8686612895        7.0472739897       18.0586854434
  C        -0.6105395691        6.6391685356       16.7277742931
  H        -2.0153519471        8.3924295423       15.4950488845
  H        -4.0568689835        8.8943395504       14.3241395661
  H         1.9894301644        8.6292767494       15.9124837847
  H         1.7043447910        9.1923732061       18.3923655150
  H        -0.1604446302        8.1924616427       19.7219518243
  H        -1.7027493209        6.5452300307       18.4854472459
  H        -1.3291474480        5.8995075516       16.3887324479
  C         1.2344201678        6.3051082529       12.2868055464
  C         2.2492813754        5.5315324401       11.5893582922
  C         3.3541915341        4.9969958310       12.2717541542
  C         3.2997302862        4.9742092521       13.7467274049
  C         2.2063412253        5.4874962867       14.4092223782
  C        -0.9711674681        7.4468375004       12.3385267640
  C         0.1119430661        6.9253224784       11.6089468355
  C         0.1016661008        7.3194046147       10.1532638404
  C         1.0163326207        8.3279871504        9.8313913514
  C         1.0562804979        8.8445977209        8.5119371541
  C         0.2264632522        8.2882572978        7.5439879886
  C        -0.6860033020        7.2723021429        7.9089351652
  C        -0.7994341738        6.8567217312        9.2364964942
  H        -1.4722815162        6.0865540115        9.5381227914
  H        -1.2618914001        6.8740202525        7.0746651595
  H         0.3714299148        8.4615933974        6.4691840877
  H         1.8821259986        9.5063700771        8.1939346299
  H         1.6316951488        8.7381936037       10.5987899584
  C        -2.1377632673        7.9550516116       11.6211773174
  C        -3.2488675347        8.4234508152       12.3354081435
  H        -4.0508896395        8.8583282861       11.7473131945
  H        -2.2792894412        7.9740346581       10.5631290919
  C         2.0412181185        5.1000779309       15.9052936397
  C         1.2588664428        3.9914875385       16.2282182750
  C         1.0810752345        3.6088157401       17.5598006279
  C         1.7598669673        4.2399464666       18.5526734035
  C         2.6520364890        5.3406809953       18.2970359131
  C         2.8092890106        5.7035536355       16.9664591608
  H         3.4675478358        6.5358718065       16.6661450258
  H         3.1761282420        5.9358868699       19.0805246078
  H         1.3959917633        4.0268162865       19.5774631254
  H         0.3247273908        2.8334754369       17.7508372053
  H         0.5539556766        3.4692181566       15.5045667601
  C         4.4033595444        4.3816188165       14.4246116999
  C         5.4833080671        3.9087399863       13.7553561227
  C         5.4892808894        3.8065185974       12.3378308223
  C         4.4746921470        4.3265308353       11.5991141773
  H         4.4901249109        4.2945873199       10.5046797372
  H         6.2554941209        3.1591815109       11.8884619273
  H         6.2835861071        3.3386448833       14.1933878615
  H         4.3421523160        4.3871134219       15.5371756492
  C         2.0647934978        5.1571625105       10.1425071988
  C         1.1029520908        4.3049497584        9.6715901324
  C         1.0174674762        3.9871484823        8.3089661111
  C         1.9103469192        4.5052878704        7.4098250746
  C         2.8022367963        5.5745908507        7.8273697456
  C         2.8197071752        5.8672822938        9.2156735639
  H         3.4549888953        6.6935113309        9.5284081192
  H         3.3962370768        6.1108279201        7.0527562638
  H         1.9223194677        4.3068621751        6.3066377408
  H         0.1813581203        3.2675969930        8.0439061982
  H         0.4552898702        3.7749128742       10.3343071868
