140

  C         4.9116801501       -0.1909977567       15.7956860971
  C         5.8249690871        0.6872200294       16.4514370429
  C         6.9122100695        1.2440184327       15.7608052894
  C         7.9786189883        1.9839361106       16.4374247331
  C         9.0199982308        2.5459104334       15.7219575247
  C         5.7446034363        1.1076864699       17.8678147098
  C         4.9269669014        2.2292029887       18.2310697695
  C         4.8048156435        2.7109571217       19.5180204846
  C         5.6463847141        2.1945710380       20.4796669490
  C         6.4452180241        1.1367398675       20.1513071704
  C         6.4785681188        0.5771158377       18.8787742157
  H         7.9587695142        1.9869501506       17.5073586944
  H         9.8207074873        3.0933541882       16.1697321576
  H         4.3379559225        2.5450531430       17.4228445211
  H         4.0710478319        3.5353701656       19.7147104334
  H         5.6002612854        2.5666468706       21.5278975252
  H         7.1915171877        0.7897814191       20.8534676378
  H         7.0772006294       -0.3698284065       18.8366445979
  C         4.8387063139       -0.1294263480       14.3249391024
  C         3.8537946894       -0.8792083119       13.7097019488
  C         2.7975016979       -1.4642761965       14.4055903576
  C         2.8474815426       -1.6037186776       15.8859779240
  C         3.9684257586       -0.9606652711       16.5613044260
  C         6.9020414846        1.2326302465       14.3146946832
  C         5.7637728890        0.7200491120       13.6388797107
  C         5.6736331475        1.1332477183       12.1631853507
  C         4.9545970090        2.2894148734       11.8984256360
  C         4.7822298628        2.8785052653       10.6487036160
  C         5.3629438117        2.2032944491        9.5135832800
  C         6.0340095679        1.0303568402        9.7716188627
  C         6.2526188785        0.5062217817       11.0936420135
  H         6.9314800522       -0.3113287527       11.4170208636
  H         6.4780227160        0.6223395994        8.8422024641
  H         5.3638533438        2.5718905721        8.4690443928
  H         4.3114253318        3.8797354985       10.6021343956
  H         4.5065735426        2.8441484205       12.6959434026
  C         8.0565948838        1.7504019709       13.6177838546
  C         9.0477468218        2.4827808668       14.3112655874
  H         9.7747629436        3.0047554988       13.7317634593
  H         8.1872939921        1.5428623159       12.5357939799
  C         3.9534996588       -1.2166436519       18.0749869794
  C         4.4848000733       -2.5182447542       18.4728894591
  C         4.3610539943       -2.9274608593       19.8299597808
  C         3.6561379876       -2.1129987702       20.7967148895
  C         3.0501882984       -0.9627317144       20.2384852327
  C         3.1965108598       -0.4735535617       18.9719549607
  H         2.6520050936        0.4477855719       18.6390094578
  H         2.4542315206       -0.3496949864       20.9612688665
  H         3.6111129000       -2.2312466540       21.8849095685
  H         4.6702929662       -3.9604907690       20.1310549845
  H         4.9183922394       -3.1076442973       17.6408529043
  C         1.8589058535       -2.3925758554       16.5506092607
  C         0.7469942494       -2.8787013376       15.9070108906
  C         0.6655257038       -2.7266053619       14.4732682389
  C         1.6392203476       -2.0688964956       13.7926608468
  H         1.5871288999       -1.9011153991       12.7069583132
  H        -0.1682679462       -3.0961099249       13.9372983672
  H        -0.0944426714       -3.3391195265       16.4313292103
  H         1.9124887186       -2.4430600231       17.6918040888
  C         3.9508542244       -1.1543977534       12.2513172620
  C         4.6013711405       -2.2549636446       11.7772973536
  C         4.3707731766       -2.7354396547       10.5233103041
  C         3.6521577408       -1.9616160642        9.6116497785
  C         2.9823796020       -0.8711827298       10.0822957956
  C         3.0802147887       -0.4613115373       11.3736634628
  H         2.5934416208        0.4772157100       11.6091862473
  H         2.4309042417       -0.2569106835        9.3805538071
  H         3.5366101533       -2.2289308047        8.5484393231
  H         4.8456698228       -3.6560606315       10.1954747223
  H         5.1534067016       -2.8961711365       12.4960833372
  C         1.0175825952        7.0940349255       16.0325288646
  C        -0.0659097187        7.7314731149       16.8443275177
  C        -1.1134212296        8.3928950235       16.1857765782
  C        -2.0033831867        9.3422176776       16.8697864251
  C        -3.0320609656       10.0202882723       16.2531032738
  C         0.2255277120        8.1623726915       18.2346485365
  C         1.2935278070        9.0799133567       18.5316202703
  C         1.3917714682        9.5636155975       19.8338260409
  C         0.5910154891        9.0818223730       20.8274931649
  C        -0.5323910867        8.2911472279       20.5223646197
  C        -0.6996302858        7.8150646792       19.2481791262
  H        -1.9379755567        9.4290045620       17.9532848466
  H        -3.7184576145       10.6997361848       16.7998716131
  H         1.9321604879        9.4623110102       17.8105701710
  H         2.2481572090       10.1960141091       20.0200041973
  H         0.7203457088        9.5050219890       21.7790520708
  H        -1.1797890729        7.9956340630       21.3035338844
  H        -1.5568613394        7.1458463162       19.0784126237
  C         0.9396607506        7.2129448599       14.5528962767
  C         1.9699652074        6.6177141034       13.7773055900
  C         3.1186083025        6.0640614044       14.3318923491
  C         3.2009247144        6.0184621218       15.8034838813
  C         2.1339975800        6.3620638013       16.6304335383
  C        -1.2648829802        8.4313805866       14.6832447842
  C        -0.1920870263        7.8472912120       13.8955411447
  C        -0.1421260615        8.2771076910       12.4339542635
  C         0.6496600937        9.3950486109       12.0857637953
  C         0.9457867223        9.6985270284       10.7783125317
  C         0.1377038594        9.1324464008        9.7938436183
  C        -0.8060007780        8.1465500268       10.1206854842
  C        -0.8175130859        7.6043128924       11.3847883804
  H        -1.3623335838        6.6970505547       11.5122702250
  H        -1.3942756645        7.7662629170        9.3060918849
  H         0.2994808179        9.4321761765        8.6877310099
  H         1.6627196136       10.4952019358       10.5828380825
  H         1.1578613977        9.9607182081       12.8650451279
  C        -2.3425293900        9.1908914345       14.0594017623
  C        -3.2787585015        9.8723914513       14.8501726936
  H        -4.1240137065       10.4516628357       14.4090594461
  H        -2.4754093993        9.2803501512       12.9913648999
  C         2.1814440815        5.9982263925       18.0369695067
  C         1.2106257733        5.1263353364       18.5660452012
  C         1.0781566762        4.7760439810       19.8751761230
  C         2.0608363688        5.2711919071       20.7929890054
  C         3.0801224004        6.0645521762       20.2727260979
  C         3.1570557267        6.5015325928       18.9242447270
  H         3.9581494900        7.1614470535       18.5638938655
  H         3.8269010869        6.3696016405       21.0265954539
  H         2.0024744713        5.0422820204       21.8521639792
  H         0.2518391755        4.1319683326       20.2168459055
  H         0.4782275022        4.7392163259       17.8298875629
  C         4.4078398115        5.5434257451       16.3520883432
  C         5.3491292687        5.0151668317       15.6119027058
  C         5.2013377237        4.7794071160       14.2385507399
  C         4.1788076761        5.4030352742       13.5698296876
  H         4.0137967973        5.1907101966       12.5557986996
  H         5.9751879180        4.1862060698       13.7564812254
  H         6.2964635712        4.6468697031       16.0331592425
  H         4.5638254571        5.6247747852       17.4096302784
  C         1.8898131524        6.4222918776       12.2767381738
  C         1.0994956271        5.3125822321       11.8865763918
  C         1.2414483668        4.7590011156       10.6034431212
  C         2.2101519106        5.2598346627        9.7706116797
  C         3.1162556158        6.2616122344       10.2060891165
  C         2.8637749405        6.9259566461       11.4086574047
  H         3.4984120956        7.7349248037       11.6958969761
  H         3.9227145255        6.4886710055        9.5416837922
  H         2.4034964973        4.7877647868        8.8233404958
  H         0.6980997559        3.8554904632       10.2659850603
  H         0.3865672827        4.8896152737       12.6439351646
