140

  C        15.3353285226       -1.2542641588        0.3083422339
  C        16.3816305557       -0.5287684717        0.8973704560
  C        17.5157283082       -0.0261439786        0.1991511055
  C        18.6007808762        0.5586592467        0.8702148106
  C        19.6058647674        1.1634966657        0.1243353733
  C        16.1982724840        0.0765943475        2.2808711364
  C        15.2528844457        1.0478247248        2.5867906916
  C        15.2416008200        1.6693128168        3.8344223127
  C        16.0588880654        1.2071672107        4.8600153092
  C        17.0294114284        0.2603376360        4.5670772228
  C        17.0567713129       -0.3745480346        3.3276773664
  H        18.7402294291        0.5084727803        1.9036752026
  H        20.4790712773        1.5642686928        0.6944968643
  H        14.5445800490        1.4912565172        1.8089746120
  H        14.5002197914        2.4483152999        3.9933249978
  H        15.8775642240        1.5770880419        5.8960803377
  H        17.6583935816       -0.1605529260        5.3718151259
  H        17.7129726761       -1.2283403218        3.1301410327
  C        15.2421471407       -1.1771289280       -1.1750336732
  C        14.1367511906       -1.8022501304       -1.8327446676
  C        13.0943883862       -2.3358590957       -1.0526349391
  C        13.1371845957       -2.3233657349        0.4074374367
  C        14.2903932467       -1.8319500843        1.0634912051
  C        17.4323815174        0.0383357712       -1.2555165158
  C        16.2996338528       -0.4982634832       -1.9242046798
  C        16.1316243985       -0.0939173436       -3.3328947468
  C        15.4038147444        1.0928137412       -3.5777570496
  C        15.4175129004        1.7948302202       -4.7524239964
  C        16.1902490556        1.2701329477       -5.8133389333
  C        16.8995909491        0.0397687368       -5.5929809753
  C        16.9355310492       -0.5827746457       -4.3666504415
  H        17.5184093192       -1.4769470483       -4.2804939131
  H        17.4372028271       -0.4709992346       -6.3483660188
  H        16.2908147577        1.8665942241       -6.7233636343
  H        14.8688284915        2.7268305604       -4.8471782156
  H        14.7845317026        1.5307546462       -2.7865297114
  C        18.4691238360        0.7264176286       -2.0075448671
  C        19.5127934499        1.3747628187       -1.2781163401
  H        20.2373489539        1.9509172364       -1.7564095837
  H        18.3893240081        0.8081399441       -3.0737234789
  C        14.5034835859       -2.0755324752        2.5931016890
  C        15.2667820394       -3.0897889940        3.0851488036
  C        15.3121785052       -3.7069971719        4.3249332921
  C        14.3176558749       -3.2140220969        5.1763301665
  C        13.4843118623       -2.2244058005        4.8093764443
  C        13.5338548148       -1.6272940109        3.5343167583
  H        12.8327634591       -0.8665473427        3.3354826163
  H        12.6473159726       -1.9360912867        5.4595169305
  H        14.2182550167       -3.7037972901        6.1307259115
  H        15.9837594085       -4.4334002536        4.6301485894
  H        16.0832856926       -3.4831905975        2.4533355287
  C        12.1668869809       -2.9733984241        1.2233758865
  C        11.0969464808       -3.5332289235        0.6486258267
  C        11.0462404636       -3.6452292165       -0.8456356381
  C        12.0153472551       -3.1309824679       -1.6450755498
  H        11.9156281100       -3.2581068488       -2.7254808863
  H        10.2795461000       -4.2647422292       -1.3440412657
  H        10.3677325118       -4.0849097625        1.1778564964
  H        12.2716633141       -2.9728537196        2.3063995564
  C        14.1716076151       -2.1325260895       -3.2865451006
  C        14.9741055746       -3.1515070670       -3.8506651446
  C        14.9664124411       -3.4539417719       -5.2155425034
  C        14.2031908252       -2.6727844891       -6.0736171861
  C        13.4461072131       -1.6314611610       -5.5362677086
  C        13.5082648961       -1.3040920731       -4.1832779691
  H        12.8045222670       -0.4914471141       -3.9265221394
  H        12.8118974978       -1.1288386368       -6.2439194826
  H        14.1087693321       -2.8245015545       -7.1775497777
  H        15.6856230116       -4.2305524852       -5.5800493695
  H        15.5301619484       -3.7485604612       -3.1507532364
  C        11.7001927114        6.3920953747        0.2385012863
  C        10.6279463062        7.0009610257        0.9951823045
  C         9.4808530350        7.4448119023        0.3377196927
  C         8.3830118021        8.0805427706        1.0617835065
  C         7.3013410525        8.6955037701        0.4353175901
  C        10.7065636086        7.2958351331        2.4892273995
  C        11.5010530886        8.4241690900        2.8186595144
  C        11.5150261529        8.8405764629        4.1435880518
  C        10.6773322928        8.2455103356        5.1215446007
  C         9.8555019512        7.1845235668        4.7374181937
  C         9.9530979025        6.6550114637        3.4483065793
  H         8.5713844361        8.3258422100        2.1019460927
  H         6.6297768883        9.2291584867        1.1039572652
  H        12.0488329481        8.8362804182        2.0968066196
  H        11.9197130585        9.8754034826        4.3536749554
  H        10.5448648247        8.6178055099        6.1177644781
  H         9.1598833929        6.8798427691        5.4960991305
  H         9.3584585532        5.8076535187        3.2620839509
  C        11.6522821707        6.4301509064       -1.1983654030
  C        12.7206175536        5.7541837473       -1.9106140463
  C        13.8152248989        5.1920210406       -1.2592718973
  C        13.8776659157        5.1423569216        0.1702744357
  C        12.8169683129        5.7291724732        0.9239241033
  C         9.4366056647        7.4303076662       -1.0939217592
  C        10.5291930842        7.0236614165       -1.8213904278
  C        10.5507396532        7.3563844826       -3.3104511779
  C        11.3526787056        8.4186591441       -3.7936492352
  C        11.4324216741        8.6401040974       -5.1955490078
  C        10.7257073641        7.8389412720       -6.1429998005
  C         9.8297248725        6.9353705845       -5.6402044189
  C         9.7991268443        6.7078791867       -4.2175811321
  H         9.0971959486        5.9950636761       -3.8341606075
  H         9.1352796278        6.4459026559       -6.2521511985
  H        10.7874231745        8.0246501205       -7.2726178525
  H        12.1840523335        9.4435175995       -5.5448159030
  H        12.1263095665        9.0098019446       -3.2353437234
  C         8.3184159065        8.0754356474       -1.6913425150
  C         7.2915876754        8.6570433384       -0.9877105089
  H         6.4981853592        9.1945909674       -1.5168729325
  H         8.2402608993        8.1159089777       -2.7342206259
  C        12.6910479760        5.3754915093        2.3887978052
  C        11.8279884367        4.3260796205        2.7830773185
  C        11.8280501390        3.8393636543        4.1578109935
  C        12.7902975889        4.3834680646        5.0720239451
  C        13.6049536039        5.4710149743        4.6862004786
  C        13.4510439040        5.9677602629        3.3828543490
  H        14.0146664802        6.8491661349        3.1073926677
  H        14.3345449358        5.8768804351        5.4715563414
  H        12.9701423912        4.0769823487        6.1269083265
  H        11.0496144911        3.1466235441        4.5023699021
  H        11.1637916328        3.7673180866        2.0322310386
  C        14.8885785046        4.2962736283        0.7931655739
  C        15.8815625748        3.6671675522        0.0729377643
  C        15.8739878389        3.8201448567       -1.3420749127
  C        14.9205437446        4.5428522131       -1.9717297170
  H        14.9094573575        4.6065059292       -3.0810368588
  H        16.7256611840        3.3169396836       -1.8906728282
  H        16.6532657960        3.0506868631        0.6139655226
  H        14.9446055967        4.2921815304        1.8857095293
  C        12.5866604620        5.3029859476       -3.3776739638
  C        11.7144525699        4.1479692936       -3.6145238387
  C        11.7101736945        3.4731430106       -4.8261923318
  C        12.3855647373        4.0501208174       -5.9042501059
  C        13.1800061313        5.2725500128       -5.6985492054
  C        13.3149496774        5.8414561143       -4.4474518674
  H        13.8517870497        6.7645200654       -4.3269619364
  H        13.7115822087        5.6046270302       -6.5374294389
  H        12.4628587458        3.5218439094       -6.9044139035
  H        11.2000860396        2.5326651919       -4.9150714381
  H        11.2018241024        3.7028325232       -2.8276277732
