140

  C         4.1537576916       -0.2329418159       14.0109521949
  C         5.1516309205        0.5092283413       14.6613634107
  C         6.3535173656        0.8891011038       13.9354143711
  C         7.4511477862        1.5209593880       14.6246338817
  C         8.5393306616        1.9980066075       13.9138246104
  C         5.0555412388        0.9548638127       16.0670560134
  C         4.0953819342        1.9676141466       16.3822996821
  C         3.8442192388        2.3455756052       17.7164332495
  C         4.6327078968        1.8331999738       18.7658453491
  C         5.5947206582        0.8406634903       18.4898719049
  C         5.7890265645        0.3450417426       17.1249575228
  H         7.3996425591        1.6179364726       15.6817838982
  H         9.2014222321        2.6452415805       14.5045575240
  H         3.5057934905        2.4204079161       15.6245155041
  H         3.0705634965        3.1560522692       17.8470101565
  H         4.4875242118        2.1941202180       19.7641088638
  H         6.3151902749        0.5557435833       19.2292643416
  H         6.5026485466       -0.4752846158       16.8931840002
  C         4.1296178421       -0.2540006682       12.5272153564
  C         3.1779334451       -1.0427068525       11.7876303940
  C         2.0793865925       -1.6533612696       12.4891038781
  C         2.0785301232       -1.5626015313       13.9442660315
  C         3.1612396171       -0.9493057588       14.7315306530
  C         6.3114902560        0.8650532134       12.4483900666
  C         5.2102091068        0.2897398046       11.7967950744
  C         5.1177864385        0.6408045218       10.3341293182
  C         4.1159858246        1.5390998351        9.9327686899
  C         3.9915982695        2.0535437338        8.6268739880
  C         5.0440761119        1.8076623302        7.7574672985
  C         6.0291383300        0.8809946453        8.0998776731
  C         6.0446080960        0.2723454109        9.3625780024
  H         6.8196086690       -0.3997072618        9.8169462496
  H         6.9358630393        0.7165212672        7.4887454032
  H         5.0666674504        2.1450460572        6.6890419748
  H         3.1746480881        2.7438533119        8.4326002729
  H         3.3958939808        1.8787024338       10.7075375385
  C         7.4365279563        1.5475128799       11.8243880097
  C         8.5288073849        2.0156496350       12.5165234293
  H         9.3362217129        2.5658823343       12.0032615401
  H         7.4563828445        1.7717070093       10.7581726636
  C         3.1014578646       -1.2107481703       16.1914887128
  C         3.7713698691       -2.3742064219       16.6391760607
  C         3.7185461726       -2.8076710206       17.9522817007
  C         3.0484749615       -2.0595005817       18.9983789458
  C         2.4300538081       -0.8985832064       18.5034456196
  C         2.4214009027       -0.4825193851       17.1470467946
  H         1.7346236030        0.3418158098       16.8836364443
  H         1.6914357802       -0.3969895247       19.1666588114
  H         2.9496158647       -2.2902547631       20.0390286535
  H         4.0533958044       -3.8387875131       18.2302710406
  H         4.2360411179       -3.0484615451       15.9413357708
  C         1.0107402139       -2.0679668636       14.6898848790
  C        -0.0154227805       -2.7371699962       14.0813729055
  C         0.0168572168       -2.8772796250       12.6414113874
  C         1.0926985434       -2.4597846145       11.8814071828
  H         1.1244871544       -2.6343707831       10.7680130236
  H        -0.7677948511       -3.4053113319       12.1347754231
  H        -0.8486219064       -3.0750173302       14.6896216142
  H         0.9761002011       -1.9700212363       15.7902325609
  C         3.2866997068       -1.4777228410       10.3109384219
  C         4.2152092957       -2.4744617626        9.8699959097
  C         4.0764202032       -2.9880782506        8.5923114239
  C         3.0319808373       -2.6157808583        7.6691120224
  C         2.1503783563       -1.7131752594        8.2103609717
  C         2.2808157446       -1.1592150339        9.4781011816
  H         1.5705756438       -0.3549202219        9.8520098334
  H         1.2714834798       -1.3401166268        7.6852444939
  H         2.8259658866       -3.1483673024        6.7876813818
  H         4.7028513236       -3.8021439201        8.4266403466
  H         4.9293047520       -3.0444870611       10.4668682966
  C         0.5993014849        6.8197062492       14.3184837105
  C        -0.4403739832        7.5206810674       14.9739394519
  C        -1.5551458753        7.9828501260       14.2007743463
  C        -2.5388476282        8.8006080900       14.8382614907
  C        -3.5194624219        9.3490472597       14.0130968423
  C        -0.3739127186        8.0889341472       16.4025067195
  C         0.5185301434        9.0749744621       16.6871891046
  C         0.4954634969        9.6174244683       18.0363377056
  C        -0.4617512660        9.1813724482       18.9919716389
  C        -1.2407636451        8.0521883885       18.6719127066
  C        -1.2388185408        7.5178888806       17.3999619835
  H        -2.6076286907        8.9411988466       15.9034010533
  H        -4.4165299657        9.8496000660       14.4162475394
  H         1.3356901749        9.3568605699       16.0080589671
  H         1.1545086321       10.4529693949       18.2772723455
  H        -0.6270634671        9.6871765431       19.9600976253
  H        -2.0013355301        7.6242337464       19.3766188534
  H        -1.9196608786        6.7198217384       17.0858231351
  C         0.6156238128        6.6764773230       12.8700502240
  C         1.6756006110        5.9666004807       12.2854302757
  C         2.7838500151        5.5455407965       13.0467803537
  C         2.7858554045        5.6776024299       14.4876181986
  C         1.6669966911        6.2893234587       15.1137873170
  C        -1.5780927908        7.8263145800       12.7459553993
  C        -0.4192412760        7.3225305681       12.1018884988
  C        -0.4237123814        7.5731638266       10.5892093630
  C        -0.0170416615        8.8387430206       10.1224689803
  C        -0.2984614406        9.3791687097        8.8529873245
  C        -1.1673516191        8.5942495720        8.0339421174
  C        -1.6333412316        7.3366258389        8.4811394909
  C        -1.2304490329        6.7793947266        9.7073323992
  H        -1.5512635307        5.7967959115       10.1325821816
  H        -2.3563783279        6.7871968657        7.8425254530
  H        -1.5681292721        8.9892706344        7.1104982962
  H         0.0615669635       10.3580478132        8.5886231012
  H         0.5956500159        9.5208337795       10.7672974747
  C        -2.6409021983        8.3610004592       11.9546108796
  C        -3.5343758682        9.1796310918       12.5927364604
  H        -4.3255129884        9.6571138840       12.0488423759
  H        -2.6542627711        8.1374790368       10.9206079874
  C         1.6040590533        6.0043432546       16.6372540570
  C         0.6711790203        4.9800099572       17.0879992172
  C         0.6258393396        4.5959773319       18.3933914767
  C         1.5318734786        5.1346164714       19.3392125963
  C         2.3714179677        6.1646398727       18.9645774637
  C         2.4287139356        6.5763999183       17.6384067165
  H         3.1847923362        7.3653653782       17.4416898348
  H         2.9126314286        6.6065982647       19.8095310990
  H         1.5627989403        4.9309780336       20.4106900244
  H        -0.1068595756        3.8558183627       18.7452617089
  H        -0.1275426982        4.7081845658       16.4251537906
  C         3.8835823903        5.1987102535       15.1608388271
  C         4.9270705374        4.5225705439       14.6101523953
  C         4.9526120499        4.3072985355       13.1912794702
  C         3.8528296218        4.7793416530       12.4499178630
  H         3.8130396776        4.6685282665       11.4002193380
  H         5.8014694614        3.7880384271       12.7260363134
  H         5.6367543272        4.0763139140       15.2880492865
  H         3.8978870466        5.2787924855       16.2379223287
  C         1.6167818428        5.5926239858       10.7989933240
  C         0.8686140168        4.4498037112       10.4516566356
  C         0.7363458012        4.0063606459        9.1776865208
  C         1.3380954039        4.6919338188        8.1178585880
  C         2.0391166105        5.8944517058        8.4532593585
  C         2.2320000068        6.3573813390        9.8068718506
  H         2.8030950626        7.2452672111        9.8865685279
  H         2.5306945809        6.3984699673        7.5912440135
  H         1.2051099552        4.3584101102        7.0542405174
  H         0.2112256044        3.0985623600        8.9928636073
  H         0.3704683643        3.9315054045       11.2703445978
