140

  C         3.5942404850       -0.0311653675       14.5472614196
  C         4.5959412722        0.7158283778       15.2763436124
  C         5.7516380666        1.2365237047       14.6838577953
  C         6.8542229693        1.6923648508       15.4569058000
  C         7.8590654626        2.3880845163       14.8147988603
  C         4.4728426247        1.1184487278       16.7708889094
  C         3.7109282479        2.2357027805       17.1363606960
  C         3.7329470762        2.8012030442       18.4038805004
  C         4.4816932742        2.1799602295       19.4134611152
  C         5.3070549429        1.0712575502       19.0778089172
  C         5.2814683110        0.5115362411       17.7847017695
  H         6.8324634039        1.7345666485       16.5452700118
  H         8.6372991948        2.9015745147       15.3645235723
  H         3.2678025424        2.8011343544       16.3111835474
  H         3.2358030048        3.6945904801       18.6554492198
  H         4.4954739856        2.7092033194       20.3581512339
  H         5.9952485371        0.6511055540       19.7806779677
  H         5.9165637013       -0.4143687535       17.6429179105
  C         3.6801054310        0.0273284354       13.0508076217
  C         2.7818135316       -0.6867427164       12.2491392117
  C         1.6748275230       -1.3561589780       12.8494258168
  C         1.5848205164       -1.4981136723       14.2714056968
  C         2.5459209171       -0.7994228200       15.1252352191
  C         5.7862687537        1.2772567097       13.2238848044
  C         4.7279642070        0.8089991221       12.4461868200
  C         4.5068953051        1.4208776573       11.0434916304
  C         3.5979611887        2.4584982287       10.8985723066
  C         3.4159460976        3.2036972107        9.6980546369
  C         4.2898196166        2.8605108049        8.6098296867
  C         5.3086589826        1.7866999417        8.7842430957
  C         5.3697522861        1.0810554550        9.9948433691
  H         6.1429146774        0.3187637637       10.1929039680
  H         5.9103499077        1.4499005360        7.9566704749
  H         4.2869412473        3.4042802107        7.6914867078
  H         2.6768434553        4.0361507960        9.7181370204
  H         3.0619103508        2.7734190668       11.8454041152
  C         6.8623437675        2.0778189557       12.6361741627
  C         7.8640118337        2.5952205058       13.4215079605
  H         8.6048311161        3.2066953752       12.8560523694
  H         6.8941514712        2.2083332232       11.5666701493
  C         2.5512098731       -1.0915272634       16.6060700866
  C         3.3739773757       -2.0721178854       17.2049337746
  C         3.3326276690       -2.3845429222       18.5222097157
  C         2.3843549500       -1.7576214095       19.3675785234
  C         1.5601837135       -0.7616577151       18.8335410814
  C         1.6752380791       -0.4625189153       17.4443268738
  H         1.0738201739        0.3262929544       17.0132327636
  H         0.9182138790       -0.0762338482       19.4487043059
  H         2.3117308047       -2.0246209903       20.3722592949
  H         3.8836988968       -3.2838639657       18.8607435011
  H         4.0435229712       -2.6380859817       16.5648454176
  C         0.3903793363       -1.9460821691       14.8853200042
  C        -0.6091542271       -2.4248017788       14.1326553537
  C        -0.4646455840       -2.4590763806       12.7374763065
  C         0.6040432201       -1.9342289921       12.0780245300
  H         0.8049314808       -2.1072354183       11.0453210029
  H        -1.2765674471       -3.0115897634       12.2039700324
  H        -1.6418562381       -2.7266496905       14.5214639179
  H         0.4201893870       -2.0453175190       15.9968229814
  C         2.9358165972       -0.9212637286       10.8116764532
  C         3.9614151473       -1.6936205522       10.3185949010
  C         4.1311325101       -2.1228379800        8.9852234068
  C         3.2624006848       -1.5955032205        8.0282504178
  C         2.0427030686       -0.8904607742        8.5252882749
  C         1.9174350557       -0.5423256071        9.8460285189
  H         1.0584879166        0.0433869072       10.1720682030
  H         1.2686164130       -0.7029845387        7.8172598318
  H         3.4087407688       -1.6499509559        6.9672561377
  H         5.0612885294       -2.6863789865        8.6905544746
  H         4.7377686819       -1.8830606012       11.0625151273
  C         0.1037000868        7.2368882547       14.4843999854
  C        -0.9794689700        7.8202776072       15.1601447514
  C        -2.0488018050        8.3673555679       14.3906516602
  C        -3.2457160913        9.0023442086       14.9899988786
  C        -4.0965358047        9.7452543489       14.2023255991
  C        -1.0557533615        8.2122473292       16.5956607204
  C        -0.4227430249        9.4278951121       16.9583250415
  C        -0.5123905219       10.0166621168       18.2156668940
  C        -1.3569327927        9.4006185081       19.2230139767
  C        -1.9757487785        8.1739659021       18.8864317328
  C        -1.7217971459        7.5350056534       17.6310511447
  H        -3.5152263572        8.9510819412       16.0424529930
  H        -4.9859843030       10.0772396682       14.7233779084
  H         0.1488470717       10.0156022989       16.2771268792
  H         0.0036808540       10.9566911382       18.3784306733
  H        -1.4266298573        9.8046476247       20.2318956981
  H        -2.4234749213        7.6008607525       19.6792775772
  H        -2.0906092302        6.5450017327       17.4447445463
  C         0.2581660815        7.4495521497       13.0054535450
  C         1.2248871583        6.7099140108       12.3040930649
  C         2.2842257421        6.1305305766       13.0038435215
  C         2.3245997056        6.1588688336       14.4802084130
  C         1.1501480379        6.5291980927       15.1962029206
  C        -1.8956026278        8.6115481839       12.9183134697
  C        -0.6989756492        8.2519304021       12.2989681695
  C        -0.5559910331        8.6968764446       10.8756762280
  C         0.6344553127        9.4991574239       10.5934691469
  C         0.9196274461        9.8619697012        9.2956764333
  C        -0.0336769482        9.6079768154        8.2141806140
  C        -1.1590392587        8.8951683571        8.5318470017
  C        -1.3628462206        8.3660298343        9.7899978497
  H        -2.1546074324        7.6417741525        9.9143031250
  H        -1.9355221612        8.8053137977        7.8416730632
  H         0.2766950787        9.9691897493        7.2339065121
  H         1.7581400178       10.4551401568        9.0020607229
  H         1.4154307159        9.5655501991       11.3465206762
  C        -2.9180480765        9.3809639431       12.2262261760
  C        -3.9881171144        9.9454804026       12.8051644197
  H        -4.7689588593       10.4278995099       12.2816784010
  H        -2.8585690358        9.4636727377       11.1655805023
  C         1.0491546711        6.0688994670       16.6515631988
  C         0.3414698704        4.8822078843       16.9444669094
  C         0.2759527532        4.3429138443       18.2051736731
  C         1.0249555991        4.9186520386       19.2772051093
  C         1.6628417230        6.1373355265       19.0022259190
  C         1.7212008610        6.7071254945       17.7295783842
  H         2.2443988702        7.6534610038       17.5510627640
  H         2.1956072644        6.6445575450       19.7668576965
  H         1.0768059470        4.4431741508       20.2472490778
  H        -0.3284501325        3.4549780350       18.3983233849
  H        -0.1669682869        4.3744712895       16.1287680764
  C         3.5458699261        5.6168766071       15.1014867923
  C         4.5512882035        5.0469848761       14.3885503554
  C         4.5236315381        5.0466029801       12.9698344638
  C         3.4253811578        5.5279904559       12.3085272265
  H         3.4793076865        5.7500734354       11.2799327631
  H         5.4176736940        4.7103774116       12.4458340349
  H         5.3978856264        4.5123153973       14.8471691791
  H         3.5938973361        5.6723026684       16.2094214840
  C         1.1182141604        6.3434291480       10.8526480028
  C        -0.0019363202        5.5854430298       10.5306348813
  C        -0.2358414214        5.1979454402        9.1661564213
  C         0.7932905875        5.3305923158        8.2572168022
  C         1.9021428673        6.1575308182        8.5758933653
  C         2.0156509562        6.7198317170        9.8129367770
  H         2.7666541283        7.4588980582       10.1056474517
  H         2.7526773376        6.2699372094        7.8778038380
  H         0.6381308117        4.9730522505        7.2533487021
  H        -1.1648279778        4.6682403025        8.9254472284
  H        -0.7100464244        5.2864093878       11.2919180352
