140

  C        12.6435185267        0.8841857080        1.3206132105
  C        13.6196484993        1.6346435351        2.0474196840
  C        14.6899917465        2.2819955362        1.3819711377
  C        15.6119628983        3.1311366508        2.0434357656
  C        16.7045643152        3.6305290177        1.3838334605
  C        13.5130760490        1.8630954971        3.5306539207
  C        12.6866272698        2.8749732476        3.9835973710
  C        12.9302385570        3.4635251731        5.2680488244
  C        13.9623357330        3.0290396916        6.0115074412
  C        14.8330108759        1.9987165952        5.5792187482
  C        14.6342547120        1.4436459895        4.3264111896
  H        15.6520802534        3.2995298613        3.1036502474
  H        17.5032897678        4.2040820150        1.9102076440
  H        11.8814389946        3.2543642065        3.3430392979
  H        12.1795938540        4.1440126605        5.6677659270
  H        14.1970486991        3.4922614909        6.9852821868
  H        15.5119369272        1.4766769267        6.2183063313
  H        15.2433769038        0.6614379049        3.8970190951
  C        12.6000313083        0.9218850965       -0.1583467961
  C        11.5461205510        0.3269636794       -0.9297426765
  C        10.3934306577       -0.1775428345       -0.2193937023
  C        10.4011578302       -0.2627158883        1.2133044843
  C        11.5849661305        0.1219031670        1.9283293820
  C        14.7323720092        2.2420875539       -0.0434036911
  C        13.6297779101        1.6665019454       -0.7680681417
  C        13.5272297789        2.1543634236       -2.1241060353
  C        12.7748261269        3.3169028192       -2.3202607712
  C        12.7441126604        3.8839462640       -3.5805063327
  C        13.2888154791        3.1806311267       -4.7140961884
  C        14.1027103738        2.0836905062       -4.4943753536
  C        14.2406819847        1.6091780942       -3.2323616941
  H        14.8632822075        0.7228998888       -3.0219779585
  H        14.4924910619        1.5544310055       -5.4032774633
  H        13.0239577871        3.5209700388       -5.7166882480
  H        12.2046041510        4.8063084250       -3.8012715094
  H        12.2170671137        3.7044544559       -1.4579600798
  C        15.7814531955        2.8981806867       -0.7148881235
  C        16.8112940935        3.5055008582       -0.0407634131
  H        17.7735151377        3.8747075757       -0.4718811059
  H        15.8139217722        2.9028567207       -1.7820209253
  C        11.6209914962       -0.2688183790        3.3930663804
  C        12.5900182467       -1.1908293412        3.7802953321
  C        12.8232284718       -1.5450459750        5.1630107916
  C        11.9586061165       -1.0245824911        6.0765241646
  C        10.9002659196       -0.1369562048        5.6806532514
  C        10.8067599637        0.2612353377        4.3523498305
  H        10.0973500833        1.0423138319        4.1580430614
  H        10.1695718586        0.3089342877        6.3686809321
  H        11.9968288452       -1.2962651287        7.1190919783
  H        13.5129900821       -2.2769802208        5.4254826096
  H        13.3117156738       -1.5855541285        3.0308535372
  C         9.3201648036       -0.9586189663        1.8781098423
  C         8.2441924735       -1.5006195039        1.2482449105
  C         8.1954990216       -1.4579457476       -0.2130438639
  C         9.2432181583       -0.8504099628       -0.8871121357
  H         9.2608034702       -1.0244326391       -2.0078998653
  H         7.4451567973       -2.0078293790       -0.8023839966
  H         7.4156898908       -1.9896951013        1.7581219699
  H         9.4720766206       -1.0854470346        2.9581833807
  C        11.4949876297        0.0796834503       -2.4423912376
  C        12.3935912955       -0.9348191921       -2.8725356722
  C        12.2256112253       -1.3920916142       -4.2001229720
  C        11.2292303752       -0.7235375651       -4.9824674646
  C        10.3769239741        0.2722764321       -4.5393324374
  C        10.5712950119        0.7809443820       -3.2406249834
  H         9.9206396843        1.6020442217       -2.8427152679
  H         9.6187272794        0.7038552712       -5.1645772081
  H        11.2483917734       -0.9819610445       -6.0547651116
  H        12.7319354662       -2.2208350094       -4.6464688631
  H        13.1953575596       -1.3293993833       -2.2151798285
  C         9.1639026007        8.1718457075        1.5379798374
  C         8.0566836271        8.7655144265        2.2088852039
  C         7.0288263314        9.3239493080        1.4290070113
  C         5.8630811481        9.9008493479        2.0204067990
  C         4.8779586858       10.5178776446        1.2905662606
  C         8.0596841347        9.0966064322        3.7171693495
  C         8.8910679430       10.0726226558        4.2849686883
  C         8.7334816070       10.4432991636        5.5936635169
  C         7.7258601319        9.8994442236        6.4214895622
  C         6.9968102680        8.8873259814        5.8969639909
  C         7.0658974113        8.5449411187        4.5198068770
  H         5.7444489863        9.9566102594        3.1511995559
  H         3.9883045476       11.0209657298        1.7322164658
  H         9.5369633158       10.7086638801        3.6501492739
  H         9.5232200981       11.0704115241        6.0057202759
  H         7.6815621241       10.2590165367        7.4483758938
  H         6.3778753094        8.2469630760        6.5602024000
  H         6.4909190959        7.7179695970        4.1102769219
  C         9.2118733600        8.1956507354        0.0531065280
  C        10.2763186646        7.5619747155       -0.6532128625
  C        11.3396223181        6.9713462092        0.0248901886
  C        11.2702741485        6.9912280648        1.5223925293
  C        10.2643616900        7.6054323443        2.1993697906
  C         7.0866471833        9.4303634730        0.0033944463
  C         8.1801434845        8.9169819551       -0.7108988885
  C         8.3700292678        9.2498375061       -2.1705788646
  C         9.2857853720       10.2485204983       -2.5797341067
  C         9.3091329996       10.7809214558       -3.8057266693
  C         8.3725211322       10.2594089579       -4.8303233590
  C         7.4294329585        9.2925680867       -4.5508953877
  C         7.4102430874        8.8316238591       -3.1195917001
  H         6.6794628156        8.0450013672       -2.9384953197
  H         6.7666414835        8.8890788609       -5.3188585383
  H         8.3455780755       10.7984978125       -5.7509684975
  H        10.0176338002       11.6070846816       -4.0102556262
  H         9.9485552118       10.6517389990       -1.8233692139
  C         6.0730509853       10.0955920484       -0.7786005423
  C         4.9642452308       10.5818572681       -0.1221700872
  H         4.1995183982       11.1278519350       -0.6682485681
  H         6.1414046946       10.0583692624       -1.8849220030
  C        10.1615750773        7.2202442669        3.7205640871
  C         9.2696786732        6.2250517012        4.1930727009
  C         9.2330387766        5.7989253132        5.5163798767
  C        10.2021718484        6.1694910675        6.4409349119
  C        11.1352220949        7.1009357364        5.9342643471
  C        11.0890859092        7.6826997026        4.6620315291
  H        11.9044141569        8.4028848562        4.4959833188
  H        11.8764054037        7.4081203874        6.6493605500
  H        10.3928030618        5.6465458277        7.3772608141
  H         8.4292398471        5.1875684298        5.8732097370
  H         8.6115565025        5.7598150476        3.4273728928
  C        12.2879063349        6.2222266224        2.1908839257
  C        13.3845059421        5.6790797537        1.5494159009
  C        13.4094712038        5.6666240610        0.1098023910
  C        12.4482462332        6.3281022313       -0.5796928626
  H        12.5323583802        6.2886762215       -1.6479460058
  H        14.2569768381        5.3252628741       -0.4540721754
  H        14.2466487860        5.1820213435        1.9650451072
  H        12.1927582801        6.1060031383        3.2445214835
  C        10.1367696316        7.1875565264       -2.0573992621
  C         9.1456718402        6.1718647541       -2.4301618576
  C         9.1886167729        5.6009258711       -3.7344022148
  C        10.1163576889        6.1029281210       -4.6511294548
  C        11.1037762897        7.0397306503       -4.3108556094
  C        11.0777183019        7.6255069260       -3.0562120292
  H        11.8099148402        8.3762309208       -2.6610703631
  H        11.9627058315        7.2818557675       -5.0284114706
  H        10.1484356456        5.6954919359       -5.6981766917
  H         8.4650936889        4.8589762638       -4.1024649431
  H         8.4073373606        5.8392425650       -1.7743375663
