140

  C         4.9640020364       -0.2807106807       15.8305285124
  C         6.0445169572        0.2780119235       16.5995468769
  C         7.1696593644        0.8357377259       16.0032880958
  C         8.2539360366        1.4383855734       16.6659813252
  C         9.1613588716        2.2140342689       16.0321139275
  C         5.9165176564        0.5730246547       18.0697232231
  C         5.2735130982        1.7847547314       18.3117641834
  C         5.1076388354        2.4081668276       19.5841650878
  C         5.7667084344        1.7442200941       20.6317086684
  C         6.5367958303        0.5854334237       20.3994646045
  C         6.6178841573        0.0299379955       19.1672303750
  H         8.4085067337        1.2220510101       17.7177099625
  H         9.9192108901        2.7490739979       16.5486138363
  H         4.8411688921        2.2457650099       17.4564394793
  H         4.5924050922        3.3046585755       19.7122206982
  H         5.8022973901        2.1644786883       21.6254923992
  H         6.9456159192        0.1541464875       21.2896994190
  H         7.2255887702       -0.8712133977       18.9755774948
  C         4.9076940164       -0.1576411085       14.3674623729
  C         3.8323581886       -0.7280282032       13.6707190977
  C         2.7067301136       -1.2522941457       14.4114401472
  C         2.6370002600       -1.3045393824       15.8358644675
  C         3.8284713260       -0.9732661052       16.5324194287
  C         7.0973258997        0.9572668934       14.5687803634
  C         5.9935866140        0.5487887487       13.7745884605
  C         6.0237875890        0.9237722569       12.3298871855
  C         5.2280720104        1.9282137949       11.8518915392
  C         5.2067526723        2.3668068167       10.5278986013
  C         5.7937743422        1.5561232994        9.6070676113
  C         6.5178649672        0.4724370464       10.0125401291
  C         6.7152268520        0.1142188707       11.3647515254
  H         7.3300687272       -0.7446527489       11.6551220911
  H         6.9679421262       -0.0919540528        9.1578488352
  H         5.7107761087        1.7820370544        8.5382386418
  H         4.6189659854        3.2908787970       10.3193610697
  H         4.7622314620        2.6523169034       12.5734975154
  C         8.1076638406        1.7375282864       13.8663763710
  C         9.0720493977        2.3383818992       14.5786215686
  H         9.8781825236        2.8974633490       14.1647279673
  H         8.0480887674        1.7720351083       12.8118410514
  C         3.8204519639       -1.1879985411       18.0302201909
  C         4.5365665134       -2.2048096000       18.6400426444
  C         4.2050228539       -2.6269960497       19.9795649844
  C         3.3945819003       -1.8121983763       20.7754887007
  C         2.7854139714       -0.6524541750       20.2288939219
  C         2.9242376563       -0.4661745528       18.8505715283
  H         2.3666380222        0.4055292004       18.4173004895
  H         2.3945042882        0.1611802484       20.8752481374
  H         3.2865767071       -2.0113858782       21.8391444259
  H         4.7899256206       -3.4362991285       20.4010164698
  H         5.2578666944       -2.8504205715       18.0648666731
  C         1.4772313047       -1.8748543332       16.4395530740
  C         0.5365569368       -2.5429117064       15.7098577629
  C         0.5955593298       -2.6071181280       14.3074625195
  C         1.6417113760       -1.9267549290       13.6919656294
  H         1.6390959994       -2.0329598118       12.6109839844
  H        -0.1544990884       -3.1218991560       13.7744411451
  H        -0.2462105526       -3.0613460751       16.2733228484
  H         1.4803912255       -1.9504902197       17.5682682521
  C         3.8617046059       -0.9666232952       12.1816705247
  C         4.3653188469       -2.1653785142       11.7579298875
  C         4.4532025821       -2.5562904921       10.4216086359
  C         3.8892626274       -1.6607028514        9.5024414016
  C         3.3579652570       -0.4779218296        9.9059956523
  C         3.2750014911       -0.1471589716       11.2349182537
  H         2.7973167862        0.7831214093       11.6121732183
  H         2.8929712917        0.1635478542        9.1185925891
  H         3.8899723553       -1.8416247465        8.4663881104
  H         4.8033099867       -3.5576851248       10.1678481111
  H         4.7737936151       -2.8028759799       12.5643090838
  C         1.1452318051        7.1469693306       15.7285823993
  C         0.1188091308        7.9266770758       16.3719800686
  C        -0.9923483903        8.4470551204       15.6104044763
  C        -2.1224121503        9.0437074579       16.2572778178
  C        -3.1133352829        9.6297193333       15.4668476780
  C         0.2020388469        8.3668236243       17.8078215815
  C         1.0036529251        9.4995720961       18.1581887005
  C         1.0137358938        9.9786980248       19.4980852101
  C         0.3808728022        9.1985874655       20.4758591235
  C        -0.4490759385        8.0864933783       20.1223696995
  C        -0.4926825102        7.6767207273       18.8141410511
  H        -2.2787944922        8.9987795272       17.3060305375
  H        -3.9702633349       10.1187894158       15.9247522631
  H         1.4634692286       10.0769517444       17.2893605137
  H         1.4500279017       10.9526610135       19.7563645798
  H         0.4877198526        9.4717775763       21.5440676873
  H        -0.9574863164        7.6072070397       20.8945561954
  H        -0.9238026878        6.7606211131       18.5473065205
  C         1.3251558681        7.2767544271       14.2296467296
  C         2.3954019511        6.5812391393       13.6182287678
  C         3.3153585657        5.8265474656       14.3640518369
  C         3.2612372291        5.8700237067       15.8486019928
  C         2.1593321005        6.4384888411       16.5218271231
  C        -0.9162346667        8.4954314947       14.1664559760
  C         0.3074470215        8.0689130468       13.5225605154
  C         0.3513111090        8.3372081005       11.9945483319
  C         1.1551138073        9.3804891649       11.4514351753
  C         0.9479215330        9.8356766447       10.1200113140
  C         0.0237183706        9.1853309009        9.3026910388
  C        -0.6464346532        8.0685157253        9.7606151702
  C        -0.4703660921        7.6215610552       11.0899349321
  H        -0.9323763840        6.7115975025       11.4384457557
  H        -1.3535319624        7.5333041483        9.1230283285
  H        -0.2067723356        9.5864383914        8.3046497932
  H         1.5310877076       10.6575409476        9.7590828626
  H         1.7323009866        9.9937967400       12.1675465400
  C        -1.9867918721        9.1397742358       13.4136034203
  C        -3.0983861283        9.6666506853       14.0811691263
  H        -3.9475393429       10.1010226166       13.5933476902
  H        -1.7646886268        9.2360569107       12.3365244295
  C         1.9677744586        6.0259734568       18.0186600784
  C         1.4252128857        4.7916967018       18.2910840165
  C         1.2534187344        4.1978437362       19.4878945358
  C         1.8155368866        4.7933048487       20.6063073224
  C         2.5025437558        5.9976140488       20.4118958639
  C         2.5293395666        6.6805268719       19.1704183203
  H         3.1604431261        7.5090759523       19.0574735504
  H         3.0400207729        6.4658050597       21.2533536090
  H         1.7890156269        4.3694502933       21.5994794189
  H         0.8116283061        3.2195427133       19.4884886407
  H         1.0298905262        4.2580270143       17.4042847047
  C         4.3462051214        5.2498854801       16.6076834719
  C         5.4044779530        4.7071227567       15.9825917314
  C         5.3868766780        4.6019237969       14.5075708067
  C         4.3734933093        5.0650744531       13.7007770249
  H         4.4149053868        4.8362464897       12.6528086470
  H         6.1867702672        4.0515717343       13.9532481463
  H         6.3029267592        4.3321370361       16.5303127782
  H         4.0773937891        5.2182895763       17.6476794963
  C         2.3051893013        6.1912495376       12.1551152069
  C         1.6270448028        4.9822324107       11.7621797075
  C         1.6077113604        4.5713040949       10.4009005765
  C         2.3919692288        5.2139953378        9.4837260800
  C         3.1017086337        6.3907401013        9.8923962818
  C         3.0443949242        6.8818030940       11.1996525806
  H         3.5457541130        7.7580479699       11.4499219768
  H         3.6660001414        6.9724527962        9.1708100601
  H         2.5433573353        4.9379127441        8.4308009197
  H         0.9748762051        3.7108352784       10.1464636713
  H         1.0125283176        4.3940728622       12.5056894989
