140

  C        14.1550590716       -0.1263830375        1.0390901948
  C        15.1970086956        0.6439625751        1.7306835836
  C        16.2068307498        1.2070443157        0.9587996270
  C        17.2195812372        1.8866237516        1.7219036212
  C        18.1996667578        2.5750433185        1.0604856188
  C        15.1330667947        1.1034710663        3.1298515812
  C        14.4592871444        2.2445524181        3.5148171221
  C        14.4286305827        2.6073415608        4.8640366284
  C        15.0239310879        1.8567789074        5.8984784641
  C        15.7390898651        0.7641922251        5.4888182700
  C        15.7308934485        0.3073167735        4.1410970495
  H        17.2823070714        1.7647034186        2.8089835253
  H        19.1031710393        2.9796079442        1.5650227984
  H        13.9121103535        2.7888682684        2.7479580506
  H        13.7413194573        3.3696805205        5.2795100483
  H        14.8579577617        2.1683517128        6.9623607949
  H        16.2394704334        0.1041195081        6.1990907833
  H        16.0721027077       -0.6746988542        3.9001869558
  C        14.1109316093       -0.1242721530       -0.4401346725
  C        13.0080405259       -0.6928298824       -1.0941850960
  C        11.8863764009       -1.1508112519       -0.3547476095
  C        11.9403323030       -1.2197284420        1.1030036226
  C        13.0914787751       -0.7345274690        1.7553250697
  C        16.1781293073        1.2539336559       -0.5074813079
  C        15.1064909411        0.6885008291       -1.1586108155
  C        14.8148656875        1.1435741940       -2.5615984749
  C        14.0215390640        2.2369666941       -2.8253603463
  C        13.8391422773        2.7789208815       -4.1071853788
  C        14.5163454088        2.1520393116       -5.1850349707
  C        15.3596564071        1.0910178916       -4.9096868591
  C        15.4967275611        0.5711006897       -3.6240832847
  H        16.0949996565       -0.2984861412       -3.3527661950
  H        15.9941683284        0.7404295281       -5.6773692764
  H        14.3848747929        2.3770128050       -6.2524505735
  H        13.2570378816        3.7099243474       -4.2662269994
  H        13.5597422472        2.6734721235       -1.9312107618
  C        17.1701825182        2.0956577203       -1.1916148727
  C        18.1306481052        2.7380817289       -0.4562030402
  H        18.8528175128        3.4512942933       -0.8895118690
  H        17.1115203980        2.1736849891       -2.2786629854
  C        13.1986424776       -0.9616502851        3.1995593980
  C        13.7611967743       -2.1579313231        3.6703733700
  C        13.9423224887       -2.4391965571        5.0790230487
  C        13.4418821373       -1.5110835957        6.0061399242
  C        12.6722166690       -0.4825729314        5.5045196983
  C        12.5671628589       -0.1617081598        4.1710780253
  H        11.9248098843        0.7450497660        3.9443767790
  H        12.2423824799        0.1914337451        6.1471889216
  H        13.6239730997       -1.6806025663        7.0836222748
  H        14.4270976389       -3.4228366763        5.2862850389
  H        13.9936046261       -2.9573574186        2.9290391245
  C        10.8631561816       -1.8702204401        1.8408670627
  C         9.8068151700       -2.4227182616        1.1460605250
  C         9.7499002806       -2.3194172007       -0.3183289846
  C        10.7449665624       -1.7358387472       -1.0503320508
  H        10.6753894604       -1.6546874083       -2.1707450853
  H         8.8170743617       -2.6116287896       -0.8156898446
  H         9.0036854284       -2.8132416700        1.7497601039
  H        11.0836935539       -2.0098184379        2.8920207354
  C        12.9573502342       -1.0071262343       -2.5678310161
  C        13.7165175317       -2.0841150494       -3.1747031420
  C        13.5178506175       -2.3201626612       -4.5076654851
  C        12.6308494993       -1.5258530109       -5.2680695233
  C        11.8475375071       -0.5306077026       -4.6426443759
  C        12.0570160479       -0.2393097263       -3.3179287218
  H        11.6468253403        0.6758981293       -2.9240691916
  H        11.1531918268        0.0433776070       -5.2173242929
  H        12.6322144369       -1.7277913347       -6.3362231078
  H        14.1487180203       -3.0404565679       -5.0357601986
  H        14.6058814776       -2.6759866284       -2.7696742002
  C        10.3448461673        7.3547567698        1.1244746761
  C         9.3799838007        8.0350028416        1.9858375557
  C         8.2685064551        8.5407335488        1.3648157790
  C         7.2276661002        9.2390867309        2.0436477343
  C         6.1713287171        9.8609320157        1.3396630288
  C         9.4667479712        8.4537599539        3.4345554026
  C        10.3179311732        9.4984394764        3.7752465553
  C        10.4882279572        9.9306321982        5.0799400249
  C         9.7386468465        9.3074875229        6.1114622420
  C         8.7284884181        8.3819076005        5.7737133022
  C         8.6655364934        7.8671414244        4.4266774856
  H         7.3650939103        9.4297004264        3.1208999888
  H         5.3746721788       10.4180556337        1.8503484641
  H        10.8551282161        9.7969340990        2.9203380808
  H        11.2241475223       10.7051007125        5.3634326871
  H         9.8657461466        9.6683391572        7.1796520989
  H         8.0026321962        8.0745469104        6.5280061829
  H         8.0806765833        6.9910784251        4.2398784455
  C        10.2909380613        7.4121939823       -0.3313269943
  C        11.3514730848        6.6761477462       -1.0601056449
  C        12.4824835191        6.1702383502       -0.4125543264
  C        12.3882219869        5.9755602719        0.9698055123
  C        11.3821444241        6.5733440671        1.7196987706
  C         8.2077660357        8.6113911631       -0.1071049688
  C         9.2390920309        8.1116632785       -0.9059990198
  C         9.2356577164        8.4651266477       -2.3679160496
  C        10.0285322631        9.5321987082       -2.8077550528
  C         9.8691587596        9.9278242728       -4.1767190596
  C         8.8557846839        9.3658999984       -4.9904742917
  C         8.0446131923        8.3149068555       -4.5457579889
  C         8.2710281037        7.8402670232       -3.2341789309
  H         7.5872740656        7.1253072300       -2.7942479011
  H         7.3021368443        7.8354349413       -5.1320402345
  H         8.6553689533        9.8596749297       -5.9583847383
  H        10.5220487144       10.7099062054       -4.6089510371
  H        10.7629080783        9.9977229175       -2.1628033671
  C         7.0904425422        9.1684840479       -0.8125548317
  C         6.0624300633        9.7569952695       -0.0826534955
  H         5.2672358710       10.2997568823       -0.5727699275
  H         7.1090805860        9.1575616179       -1.9329201537
  C        11.3367704176        6.3023128298        3.2356174591
  C        10.5202849976        5.2362571841        3.6269148596
  C        10.4848741171        4.8022219705        4.9641086431
  C        11.3859645265        5.5122243987        5.8952889661
  C        12.2845717461        6.3971792832        5.4651509697
  C        12.1786008740        6.8287068703        4.1759383258
  H        12.8421072569        7.6352161429        3.8841552679
  H        12.9499948773        6.8084194450        6.2013580341
  H        11.3659861996        5.1902426498        6.9525565688
  H         9.8863448514        4.0018726714        5.3752257409
  H         9.9669383999        4.6688138611        2.8582473214
  C        13.4477997050        5.2827262657        1.6792110127
  C        14.5985175991        4.9022896498        1.0555861582
  C        14.6387508707        4.9950515375       -0.4130997474
  C        13.6191926274        5.6099174974       -1.1018847655
  H        13.5904300284        5.6670840402       -2.1741620132
  H        15.5491903006        4.6309558295       -0.9193539768
  H        15.5188231830        4.6115111625        1.5422672383
  H        13.3365165333        5.2409524769        2.7602921229
  C        11.2356651387        6.3675551333       -2.4616611555
  C        10.4011491095        5.3886571172       -2.9336479540
  C        10.4979178660        4.9075036662       -4.2951772352
  C        11.4603793134        5.4416532176       -5.1717636850
  C        12.1917148010        6.5414614688       -4.6783195270
  C        12.1039246414        6.9990154652       -3.3777559824
  H        12.6479383867        7.8642556592       -3.0188405876
  H        12.8087935390        7.1491422766       -5.3410060374
  H        11.5616494699        5.0791905129       -6.1544567912
  H         9.9319613161        3.9864417505       -4.5773662636
  H         9.6432367896        4.8736192113       -2.3445811190
