140

  C         4.6902891090       -0.2363561052       15.7240521571
  C         5.5930029666        0.5738659469       16.4706552062
  C         6.6176492212        1.2184440264       15.8158370241
  C         7.7023819074        1.7956298109       16.4636954658
  C         8.8520886302        2.3104981218       15.8966636118
  C         5.5754702888        0.8396638238       17.9498411311
  C         5.0002254596        1.9710297513       18.5707149208
  C         5.2114309078        2.1157530469       19.9241352929
  C         5.8392560190        1.2003346801       20.7410250365
  C         6.4514980927        0.0743163534       20.1174290664
  C         6.4074359516       -0.0563619212       18.7295102027
  H         7.7289743005        1.7396424254       17.5426431298
  H         9.5532398782        2.8699409114       16.4969223771
  H         4.3975300528        2.7310495405       17.9724911419
  H         4.8332030704        2.9849253452       20.3937597575
  H         5.9232148855        1.3430333035       21.8283702032
  H         7.0348216486       -0.6795167200       20.6567060975
  H         6.8135008201       -0.9208439715       18.2410576719
  C         4.6827852529       -0.1871389439       14.2303656301
  C         3.6879384245       -0.9944694093       13.5327713811
  C         2.5911477979       -1.5251510011       14.1924027950
  C         2.5260316980       -1.4395288416       15.6192372543
  C         3.6329570501       -0.9415689546       16.3892414668
  C         6.7166816410        1.1785511512       14.3572312712
  C         5.7394971606        0.5275856252       13.5754985266
  C         5.7802781102        0.9429943652       12.1181671248
  C         5.0294719341        1.9810021625       11.7045227471
  C         5.1787312182        2.5595705073       10.3888174457
  C         6.1306076224        1.9963286226        9.4763149625
  C         6.8690386626        0.8690573510        9.9259387923
  C         6.6200258281        0.2725164814       11.1806020858
  H         7.1000790548       -0.6290078398       11.5220160160
  H         7.4187637721        0.3385990401        9.1302302612
  H         6.2402297725        2.2218044854        8.4296679574
  H         4.4731205075        3.3550974981       10.1074061950
  H         4.2963486738        2.4616866726       12.3904721791
  C         7.9305305796        1.7364166354       13.7622406281
  C         8.9474633559        2.3198926179       14.4791713692
  H         9.8406813160        2.8538303930       14.0559973596
  H         8.0092601332        1.5409729797       12.6858948302
  C         3.6981474763       -1.3979023942       17.8329343896
  C         4.4380907526       -2.5133083773       18.1601362620
  C         4.3498818817       -2.9530496322       19.4749953958
  C         3.6625795954       -2.2972301048       20.4391375058
  C         2.9037094807       -1.0863207286       20.1653577457
  C         2.9104065331       -0.6883491143       18.8189587389
  H         2.3294812724        0.1424730907       18.4458201538
  H         2.3140540911       -0.5993937015       20.8870810140
  H         3.8139566006       -2.5466269137       21.4722484854
  H         4.7529258708       -3.9242788685       19.7087410564
  H         4.9955603312       -3.1124565654       17.4127241121
  C         1.3781072699       -1.9421396592       16.3530476054
  C         0.3852480866       -2.6258508306       15.7421883430
  C         0.4181721096       -2.8459570268       14.3512524674
  C         1.5249520000       -2.2864180361       13.5707274870
  H         1.5396895865       -2.4112649746       12.4911786675
  H        -0.2686106842       -3.5237064045       13.8623801072
  H        -0.3689727620       -3.1331574526       16.3324575642
  H         1.3085603664       -1.8188094245       17.4372672822
  C         3.7972020228       -1.3148016869       12.0342675806
  C         4.6292475973       -2.3849135046       11.6178104595
  C         4.6369925958       -2.8278121067       10.2708071521
  C         3.6548342560       -2.2975320539        9.3389715307
  C         2.7366711937       -1.3717448653        9.8747952486
  C         2.7952610493       -0.8194644933       11.1566614063
  H         2.0606864454       -0.1089498982       11.5169655938
  H         1.7973680380       -1.1230944114        9.3262872798
  H         3.5429436080       -2.6803733226        8.3305512562
  H         5.4220133642       -3.5252850738       10.0277643563
  H         5.2787689324       -2.8761925032       12.3080883068
  C         1.1821662191        7.0340458691       15.9379411045
  C         0.1190632026        7.7709889172       16.6300964785
  C        -1.0057472569        8.3177893926       15.8988851706
  C        -1.9597960175        9.1642635827       16.5588101818
  C        -2.7447372083       10.0227015520       15.7949654926
  C         0.1844665196        8.1370583335       18.1261251263
  C         0.9144483818        9.2452820866       18.6403822494
  C         0.8292645091        9.6296134899       19.9758452143
  C        -0.0465549659        8.9309706331       20.8235138252
  C        -0.9660534034        8.0279227287       20.2637649611
  C        -0.8061941269        7.5970457184       18.9481137397
  H        -1.8587579671        9.4147286637       17.5981576969
  H        -3.4173800948       10.7702721162       16.2628729010
  H         1.5156563654        9.8543195022       17.9572265917
  H         1.5628085809       10.3752739554       20.3422775688
  H        -0.2710726430        9.0912758075       21.8994051658
  H        -1.6807913462        7.4811950875       20.8446662289
  H        -1.4417112944        6.8391601682       18.5852418872
  C         1.1831048376        7.1292878671       14.4487105618
  C         2.2210504538        6.4706771796       13.7711867099
  C         3.3207279371        5.9291999825       14.4889415085
  C         3.3431442348        5.7987775103       15.9641008530
  C         2.2588750348        6.3852309198       16.7244785732
  C        -0.9899321764        8.2846353376       14.4447558718
  C         0.0947131881        7.7292953629       13.7363065128
  C         0.1694872746        8.0113235873       12.2447718855
  C         1.1029966162        9.0450136301       11.8881866578
  C         1.3145992264        9.4171803759       10.5778896037
  C         0.6309181126        8.6667727108        9.5964263068
  C        -0.2123124808        7.6207220047        9.9485387737
  C        -0.5566877852        7.3627851094       11.2655014695
  H        -1.3662042978        6.6097716476       11.4458353480
  H        -0.7956261195        7.0914358786        9.2058290914
  H         0.9014249630        8.8979507131        8.5203896400
  H         1.9705524068       10.2217073148       10.2943735359
  H         1.7662790401        9.4484814842       12.6632464566
  C        -1.9508442169        9.0798009369       13.6716194271
  C        -2.7647660487        9.9002748740       14.3854003638
  H        -3.4166707453       10.5394210895       13.8336430060
  H        -1.8895272227        9.0604342728       12.6062601049
  C         2.2139206179        6.1695453180       18.2068892121
  C         1.3376237592        5.2211233560       18.7939839496
  C         1.4651113545        4.8962899656       20.1776834175
  C         2.4465407208        5.4851272501       21.0384995564
  C         3.3239271206        6.3624105583       20.4093771546
  C         3.2363753636        6.6632294337       19.0392919256
  H         3.9333720290        7.2829551551       18.6208654723
  H         4.1541521607        6.7227057036       21.0357532529
  H         2.5480427926        5.1640952657       22.0711581561
  H         0.8627594270        4.0379608616       20.4342789510
  H         0.7872354397        4.5825522015       18.1571834071
  C         4.3419013668        4.9728166963       16.5952451818
  C         5.3086759838        4.4713633433       15.7974360570
  C         5.3315175548        4.5641295869       14.4042864029
  C         4.3138668274        5.2407464760       13.7596957389
  H         4.3970770226        5.3314444492       12.7081664326
  H         6.1599124445        4.0624216398       13.8995506557
  H         6.1454003962        3.9307516179       16.2782414173
  H         4.5734542394        4.8537396433       17.6457728320
  C         2.1926142268        6.0330978126       12.3075984901
  C         1.4909856880        4.8606601381       11.9461411487
  C         1.6579587036        4.1963618549       10.6955247294
  C         2.4422900813        4.8697771668        9.7754943639
  C         3.1809817718        6.0850436880       10.0956179753
  C         3.0169156127        6.6375586061       11.3828240500
  H         3.5720354406        7.5014385300       11.6923251434
  H         3.9020331114        6.4572913003        9.3345205240
  H         2.7312210543        4.4204331285        8.8174130697
  H         1.1663954481        3.2380309035       10.5084666953
  H         0.9249390845        4.3099945574       12.7319566206
