140

  C         3.9476171462       -0.1152167734       15.7320028300
  C         4.9174039040        0.6568302340       16.4837877581
  C         5.9420538925        1.3368716169       15.8303493339
  C         6.9079485043        2.1710237640       16.4559475276
  C         8.0131505687        2.6979630526       15.8723064351
  C         4.8289463237        0.9429974027       17.9738320464
  C         4.0786448347        2.0182820839       18.3789528820
  C         4.2537779373        2.5228709489       19.6834496666
  C         5.2691131405        1.9958825774       20.5174263831
  C         5.9761824997        0.9076210631       20.0973498148
  C         5.7650650421        0.3872302232       18.8271904202
  H         6.8423525887        2.3800873670       17.4852155895
  H         8.7274089775        3.2960955593       16.4015314347
  H         3.3179148081        2.5294744615       17.7716119237
  H         3.6805045197        3.4026241792       20.0230210181
  H         5.4048597346        2.3926963274       21.5140011270
  H         6.7991475850        0.6061956811       20.7740038420
  H         6.3260770774       -0.4433517149       18.4012497783
  C         4.0668209446       -0.0646133830       14.2049954151
  C         3.1270460458       -0.7936590253       13.4552698254
  C         1.9976700196       -1.3386045998       14.1380683518
  C         2.0274640630       -1.4433168265       15.6014082552
  C         3.0633391484       -0.9982187602       16.3759628756
  C         6.0848829357        1.2449591306       14.3743939627
  C         5.1729371693        0.5835973009       13.5455352032
  C         5.0303504376        0.9732553352       12.1511791425
  C         4.2312721411        2.1023869085       11.7761830833
  C         4.1593812469        2.4670222014       10.4502130130
  C         4.9311511276        1.8908971889        9.4440393877
  C         5.7299475470        0.8052985629        9.7554077422
  C         5.8158670021        0.3634010488       11.1074072154
  H         6.4836005668       -0.4491117193       11.3219055399
  H         6.1504712115        0.2860555769        8.9513960520
  H         4.9154686303        2.2403101992        8.4169088186
  H         3.4013398451        3.2075739967       10.1439173126
  H         3.6382411614        2.6973395708       12.4541106183
  C         7.3352608450        1.7540756246       13.7940689916
  C         8.3514065076        2.3909692081       14.4881447068
  H         9.2795000384        2.7696645325       14.0512030535
  H         7.4928731827        1.6011671035       12.7131915551
  C         3.1518858939       -1.2799003067       17.7941611246
  C         3.9258449391       -2.3573114570       18.2249820501
  C         4.0054873506       -2.6516249195       19.6474999715
  C         3.4876601701       -1.7556204643       20.5506349968
  C         2.7360563787       -0.6792985513       20.1231745747
  C         2.5185050661       -0.5139733492       18.7801517783
  H         1.7744611892        0.2718288393       18.5114529787
  H         2.2201788130       -0.1408036960       20.9150388493
  H         3.6755753080       -1.9529816164       21.6296259307
  H         4.5913644527       -3.4587489086       19.9516541574
  H         4.5569566380       -3.0003614628       17.5741681183
  C         0.9426671878       -2.0666952354       16.2207445522
  C        -0.1318692992       -2.5029178232       15.5258469966
  C        -0.2410942654       -2.5125668902       14.1319305654
  C         0.8644124869       -1.9797397228       13.4771653290
  H         0.9248279566       -2.0024904835       12.3669117733
  H        -1.0630066359       -2.9630154512       13.6267377587
  H        -1.0444579349       -2.9299697219       16.0582643308
  H         0.9177791600       -2.1250012605       17.3252186517
  C         3.0729811170       -1.0746998313       11.9724901059
  C         3.8685105078       -2.1248292154       11.5434655844
  C         3.8834948074       -2.5440018004       10.1758656530
  C         3.0704528787       -1.9402558878        9.2190364145
  C         2.2630915911       -0.8814048923        9.6728787732
  C         2.2665636759       -0.4503545140       11.0012893818
  H         1.5755258848        0.3572638625       11.1559642094
  H         1.5019229314       -0.4720358331        8.9449578669
  H         3.1882553609       -2.2416891120        8.1625861188
  H         4.6352368419       -3.3143181420        9.9461250370
  H         4.5616301277       -2.6133494840       12.2911015576
  C         0.4371361356        6.9956236885       15.2987134215
  C        -0.5527598523        7.8231862638       16.0319390652
  C        -1.6963894093        8.2725657046       15.2562339603
  C        -2.6241219673        9.0533360009       15.9744343188
  C        -3.5481335042        9.8447171910       15.3421438122
  C        -0.4536343021        8.3689131095       17.4973521455
  C         0.4371132633        9.4596865047       17.7200512443
  C         0.5646317395       10.0266339153       18.9716441004
  C        -0.1925863779        9.5137718484       20.0057309794
  C        -1.0787560067        8.4523744820       19.8187107818
  C        -1.1227648091        7.8356104306       18.5664341276
  H        -2.6984356565        9.1046221549       17.0714705223
  H        -4.1846354608       10.5215093790       15.9289128467
  H         1.0439930439        9.7911732324       16.8938764265
  H         1.3258751474       10.7947264078       19.2124889806
  H        -0.0778635124        9.8538375289       21.0398807417
  H        -1.6089770181        7.9251970186       20.6043534731
  H        -1.6511702416        6.9168216687       18.3683157756
  C         0.4471436898        7.0504331599       13.7673505624
  C         1.5860885057        6.4965794030       13.0528235946
  C         2.7189735314        5.9623809197       13.7354575174
  C         2.6922566352        5.8224490390       15.1781804832
  C         1.5627878469        6.3636622326       15.9255409851
  C        -1.7198182282        8.3123201991       13.8188195296
  C        -0.5785088710        7.7665077172       13.1154729809
  C        -0.5422679939        8.2596132125       11.6534909965
  C         0.0793997707        9.4356457972       11.2850331401
  C        -0.0212887603        9.8155289492        9.8802703963
  C        -0.7850424246        9.1189518907        8.9397416722
  C        -1.4013566061        7.9395306121        9.4398015830
  C        -1.1969283612        7.4933160130       10.7031199189
  H        -1.5540532768        6.5140120813       11.0156303787
  H        -1.9985921044        7.3961150209        8.6596855672
  H        -0.6884915556        9.4959933647        7.8909898974
  H         0.3572237473       10.8296754424        9.6355598284
  H         0.7744676544        9.9925361750       11.8994013061
  C        -2.7029285289        9.1122296205       13.1674519730
  C        -3.5438093083        9.9652801376       13.9171838893
  H        -4.2935168450       10.5429241036       13.4243583065
  H        -2.7800254869        9.1958691918       12.1156029622
  C         1.4586796716        6.0635671364       17.3965105346
  C         0.7191279614        4.9436752209       17.8382131673
  C         0.7501220013        4.5887140124       19.1952039819
  C         1.5385944983        5.3315387565       20.1102188761
  C         2.2901124308        6.3951280848       19.6816317936
  C         2.2568294365        6.7453106249       18.2940368471
  H         2.8665392808        7.5687433350       18.0260624284
  H         3.0583727138        6.8244414027       20.3581551557
  H         1.5066388819        5.0857574621       21.1508919204
  H         0.2002409807        3.7106989907       19.5173513037
  H         0.0961312721        4.4066053476       17.1507495814
  C         3.8199788336        5.1860144865       15.7979194272
  C         4.8655457198        4.7770394002       15.0352659546
  C         4.8884590074        4.9031766907       13.6228309305
  C         3.8555113640        5.4947828131       13.0360753319
  H         3.8503931919        5.6120868936       11.9933229483
  H         5.7894397465        4.6140190061       13.0379438648
  H         5.6806548414        4.2859573129       15.5217969329
  H         3.7640509178        5.0957587799       16.8750155542
  C         1.5954404365        6.1401829940       11.5331840897
  C         1.1102796585        4.9415506397       11.1287539665
  C         1.2407204159        4.4847045018        9.8418424128
  C         1.8713275570        5.2796996000        8.8532260785
  C         2.3679096774        6.5561765449        9.2185498729
  C         2.1924858804        6.9854038257       10.5650559202
  H         2.7013031133        7.9225085793       10.8222746928
  H         3.0172800088        7.2056643799        8.6182878202
  H         2.0268961180        4.7264247697        7.9222938776
  H         0.8703818139        3.4894479771        9.6874649077
  H         0.7012568333        4.1758451217       11.7830538854
