140

  C        15.1452044700       -0.6629143287        0.6354333972
  C        16.1408836639        0.0788947826        1.2648104952
  C        17.2271830780        0.6347823183        0.5650431194
  C        18.3503757687        1.3183551896        1.2035934669
  C        19.2950278713        1.9809132920        0.4541811116
  C        16.0351289079        0.4907093827        2.6740136104
  C        15.0904942727        1.4877920413        3.0711619407
  C        15.1017763822        1.9062648068        4.4285280884
  C        16.0439529888        1.4287478325        5.3530058837
  C        16.9477747949        0.4601012304        4.9617975560
  C        16.8963720604       -0.0816131831        3.6956087736
  H        18.4963291560        1.3385990795        2.2613357275
  H        20.1519449043        2.5043318933        0.8931141324
  H        14.3921129101        1.8906940741        2.3702732810
  H        14.3956194825        2.6372029257        4.7423168735
  H        16.0815077098        1.9424644539        6.3139467229
  H        17.7889999649        0.1557448530        5.6964548856
  H        17.6368889567       -0.8181617602        3.3629721885
  C        15.1144732308       -0.7355356717       -0.8054656516
  C        14.0959986436       -1.5034529238       -1.4082647611
  C        12.9996848656       -1.9864859178       -0.5940613578
  C        12.9879285874       -1.9415248266        0.8253557591
  C        14.1338443287       -1.3386733812        1.4291363559
  C        17.2343051996        0.5339624256       -0.9182730736
  C        16.0685891374        0.0601262232       -1.5382751248
  C        15.7911650591        0.4550149555       -2.9361291122
  C        14.9479401660        1.5743837568       -3.1618710553
  C        14.7705274407        2.1152726371       -4.4297953292
  C        15.5789756820        1.6031653665       -5.5395176875
  C        16.6051081729        0.7521736021       -5.2186281695
  C        16.6219613624        0.1136124087       -3.9864103405
  H        17.3218499382       -0.6692954183       -3.8825675533
  H        17.2012373985        0.3890579435       -6.0452827905
  H        15.4790113493        1.8955694628       -6.5573614734
  H        14.0340948051        2.8710048992       -4.6441596496
  H        14.4619924843        2.0409355983       -2.3219692882
  C        18.2210434344        1.2868368196       -1.6823572945
  C        19.1900604039        1.9681326373       -0.9814922203
  H        19.8635645159        2.5939494431       -1.4753903646
  H        18.2094458528        1.4627470596       -2.7298847594
  C        14.2363716727       -1.6722499000        2.8669047264
  C        14.8985170801       -2.8317342446        3.2525397537
  C        14.8398274625       -3.3110664418        4.5735213731
  C        14.0785348556       -2.6066448126        5.5229833841
  C        13.3768622409       -1.4728684479        5.1566540905
  C        13.4934963701       -1.0118561760        3.8326969132
  H        12.9420671258       -0.0914685504        3.6023617230
  H        12.7556381786       -1.0178899310        5.8027207858
  H        14.0987075637       -3.0258126147        6.6430619508
  H        15.6377314041       -3.9503721009        4.9195774901
  H        15.5373049210       -3.4117845259        2.5501058540
  C        11.9685619037       -2.5837811390        1.5895550377
  C        10.7817258477       -2.9219649932        1.0150489953
  C        10.7368181415       -2.9085396566       -0.3878255714
  C        11.8190841885       -2.5189864664       -1.1854630439
  H        11.7827294504       -2.4835627488       -2.2399029051
  H         9.7956875550       -3.3054803080       -0.9345647015
  H        10.0480559068       -3.3765417472        1.7351768978
  H        12.0191926561       -2.7480944375        2.6608009750
  C        13.9759826734       -1.7928075935       -2.8833331849
  C        14.6449724758       -2.8237842986       -3.5079317856
  C        14.3378285629       -3.1403700480       -4.8432135103
  C        13.3246687940       -2.4789554045       -5.5475818079
  C        12.6282876256       -1.4711472628       -4.8987084810
  C        12.9465625461       -1.1447734729       -3.5973635379
  H        12.3452538291       -0.3836221363       -3.0987752762
  H        11.8523781350       -0.9076553180       -5.4056232386
  H        12.8808386708       -2.8365060657       -6.4583583600
  H        14.9722383316       -3.8464540890       -5.4213733572
  H        15.3882163719       -3.4845721257       -3.0463260888
  C        11.3895596821        6.7195536690        0.6439083031
  C        10.3799571810        7.4579198825        1.3292879174
  C         9.2634357383        8.0769628256        0.6608092902
  C         8.2038271957        8.6646592841        1.3771009513
  C         7.1536095241        9.3255759169        0.7610026695
  C        10.4716927919        7.7488440541        2.8716244294
  C        11.4098076716        8.6421092946        3.3749764865
  C        11.4263040277        9.0531586338        4.7109666107
  C        10.4082192495        8.5337020390        5.5699418496
  C         9.5234466322        7.5124663561        5.1106260182
  C         9.5833345923        7.1352811357        3.7909348407
  H         8.1102745481        8.6223390286        2.4880232158
  H         6.4467026980        9.8722040095        1.3627766603
  H        12.0127773304        9.2523257110        2.6581769966
  H        12.0535022891        9.8300096408        5.0358772221
  H        10.3869983630        8.8983617596        6.6268173253
  H         8.8168677038        7.0915227323        5.8694480057
  H         8.8620498288        6.3543126565        3.4263616044
  C        11.3628713075        6.8386712967       -0.8721206222
  C        12.4085505691        6.1861207333       -1.6084318828
  C        13.4495882458        5.5753615140       -0.9226668152
  C        13.5843959115        5.5765838863        0.4724767832
  C        12.4953186065        6.0626789224        1.2574121783
  C         9.1802934331        8.0643474395       -0.8135348798
  C        10.2912044805        7.5298861041       -1.5250574029
  C        10.3501757583        7.9512252605       -2.9871199194
  C        11.0602436520        9.0549479961       -3.3264764750
  C        11.0609010276        9.3978800890       -4.7097192115
  C        10.2754300964        8.7150424085       -5.6826471937
  C         9.4258511946        7.6822677183       -5.1873735337
  C         9.5129824198        7.2461823658       -3.9005191213
  H         9.0791980740        6.3520632828       -3.4483689096
  H         8.7188066292        7.1290275715       -5.8663938805
  H        10.2012861195        9.0780121142       -6.7623137574
  H        11.4927696511       10.2861687552       -5.0143354941
  H        11.6728153615        9.6255064081       -2.6844387530
  C         8.0563400405        8.8013646141       -1.4103321727
  C         7.0977787993        9.3714509136       -0.6389797320
  H         6.2505727179        9.8913264760       -1.0599601316
  H         7.8749183002        8.7978295612       -2.4685587912
  C        12.4664820977        5.8069535900        2.7209972652
  C        11.5635109640        4.8487959315        3.2588798674
  C        11.5707787073        4.3990438708        4.5808173792
  C        12.6084981077        4.8087494957        5.4449258185
  C        13.4970322527        5.7755864066        4.9237050664
  C        13.4244982881        6.2599820671        3.6161640045
  H        14.1387414739        6.9679089512        3.2064148222
  H        14.2247201956        6.1355225049        5.6588605757
  H        12.8082151318        4.3994826543        6.4621640482
  H        10.9365294481        3.5881116190        4.9260628729
  H        10.7557158940        4.4363669005        2.6380057042
  C        14.7816783990        5.0439325738        1.1691394105
  C        15.7371311154        4.4601094301        0.4217505443
  C        15.5913274063        4.3914767320       -0.9945974395
  C        14.4960604985        4.8367883054       -1.6578258936
  H        14.4770729906        4.6143259921       -2.7112982942
  H        16.2677666789        3.6808394034       -1.5348099551
  H        16.7304348436        4.1749580192        0.7919399068
  H        14.7374592887        5.1720690458        2.3130614183
  C        12.2388535547        5.8482551549       -3.0697524029
  C        11.5749250219        4.6646073717       -3.4567259619
  C        11.4176691644        4.3735700434       -4.8296081451
  C        12.1463050270        5.1455500860       -5.8098265598
  C        12.9162912511        6.3045308148       -5.3861136660
  C        12.9142955644        6.6513828552       -4.0084163708
  H        13.3769572206        7.5178374958       -3.6374158331
  H        13.6155073025        6.7351181067       -6.1342584855
  H        12.2676782082        4.7896943772       -6.8465649332
  H        10.8373872435        3.4901066749       -5.2776262750
  H        11.0283855101        4.0747284719       -2.6726442581
