140

  C        15.7240147344       -0.1164899467        2.3631407068
  C        16.7063205331        0.6618865579        3.0630092759
  C        17.7150519793        1.3365197675        2.3303890589
  C        18.8284282003        1.9991753035        2.9508343409
  C        19.8112358821        2.7029796824        2.3033109852
  C        16.6026060796        1.0746029406        4.5178403921
  C        15.5701827817        1.9999536509        4.7877994950
  C        15.4641770028        2.4578315133        6.1406574041
  C        16.3627586694        2.1209075505        7.1226734337
  C        17.4095376709        1.2431077085        6.7984937372
  C        17.5467123269        0.7173803459        5.4720995497
  H        18.8501595099        2.0616382882        4.0319948303
  H        20.5814701040        3.1858982094        2.9015645650
  H        14.9123514399        2.3502810490        4.0209090059
  H        14.6129555736        3.1595923407        6.2890541506
  H        16.4081323964        2.5549896729        8.1167639692
  H        18.2040890823        0.9527924916        7.4577099194
  H        18.3084591266        0.0141339329        5.2542170638
  C        15.7485367696       -0.1263332079        0.8664416573
  C        14.7410595780       -0.8252585478        0.1773231960
  C        13.6264720200       -1.4005355570        0.8106070689
  C        13.5639448705       -1.3335859885        2.2661204942
  C        14.6331012498       -0.6999903728        2.9924882522
  C        17.7247060236        1.3025810616        0.8711551692
  C        16.7188190444        0.6802598894        0.1446295550
  C        16.6057304656        1.1939963781       -1.3016620261
  C        15.7502359798        2.3000287040       -1.6078267308
  C        15.6407842211        2.6197907403       -3.0251980389
  C        16.5218734287        2.0008479007       -3.9794853299
  C        17.4829774554        1.1241471135       -3.5170157902
  C        17.5248635071        0.6859699483       -2.2308171861
  H        18.2132588344       -0.0603263680       -1.8153082473
  H        18.2834352979        0.7745852207       -4.2024609236
  H        16.4647349440        2.3578121101       -5.0378815513
  H        14.8315607922        3.3070070121       -3.2672190413
  H        15.1018869153        2.8202076834       -0.9451194760
  C        18.7251259801        2.1813828806        0.2301962080
  C        19.7273841674        2.8677435820        0.8747179993
  H        20.5228963300        3.4023849416        0.3013304405
  H        18.7097161766        2.2133921927       -0.9055694539
  C        14.7089155492       -1.0388507001        4.4593069111
  C        15.5274086411       -2.1461741394        4.7986075511
  C        15.6761747485       -2.6148825696        6.0830114208
  C        14.9396628450       -2.1085820938        7.1292641958
  C        14.0499641654       -1.0535158694        6.8795524719
  C        13.9124338274       -0.5639219775        5.5217607943
  H        13.1862655410        0.2184554708        5.3340467862
  H        13.5026876122       -0.6050410633        7.6363806437
  H        15.1715770307       -2.4736978633        8.1349711048
  H        16.4179434213       -3.3732156098        6.2143121927
  H        16.1621877631       -2.5613199098        3.9074544297
  C        12.4474931729       -1.8623091764        2.9339640714
  C        11.4316652232       -2.4317186295        2.2091274738
  C        11.4055712007       -2.4147998713        0.7643108101
  C        12.5318458696       -1.9321353845        0.0608332265
  H        12.4513792891       -1.9627957820       -1.0565826774
  H        10.5988144201       -2.8949375534        0.1921858873
  H        10.5836271782       -2.7648526041        2.7793210083
  H        12.3829528084       -1.9832401036        4.0211379718
  C        14.8332837491       -1.0349647909       -1.3067941321
  C        15.6589646052       -2.1190323224       -1.7025711153
  C        15.6395905903       -2.5938468267       -3.0288787679
  C        14.8459489745       -1.9282101877       -3.9471856716
  C        14.0194290046       -0.9058543881       -3.5296561132
  C        14.0232884225       -0.4399840223       -2.2353198259
  H        13.3401091239        0.3451131281       -2.0085231930
  H        13.4741162948       -0.3736727606       -4.2893775258
  H        14.9690751811       -2.2519612501       -5.0156625725
  H        16.2740170354       -3.3705930121       -3.3696734420
  H        16.2972910273       -2.5698197762       -1.0062350559
  C        12.0895714230        7.2192376930        2.3808373521
  C        11.0939646505        8.0241361398        3.0168309063
  C        10.1062575952        8.6528916881        2.2102585069
  C         9.0646339217        9.3743081312        2.8145275385
  C         8.0739707388        9.9390831236        2.0584949006
  C        11.0755741450        8.4162284900        4.4059567647
  C        11.8192378011        9.5102867940        4.8608746481
  C        11.7836269482        9.8515597988        6.2284409599
  C        10.9549620286        9.0757471414        7.1250665347
  C        10.2793053811        7.9895432908        6.7014827473
  C        10.4357116458        7.6133360501        5.3508032465
  H         8.9516465149        9.3058568506        3.8730859001
  H         7.2560207975       10.4723357277        2.5628401763
  H        12.3924692083       10.1906126341        4.1594734039
  H        12.5108795571       10.6651526511        6.5862770794
  H        11.0245879772        9.2523299495        8.1812752918
  H         9.7301254801        7.3229743122        7.3678812299
  H         9.9097298213        6.7162502836        4.9690964066
  C        12.2063079132        7.1512025879        0.9196146671
  C        13.2469451479        6.4233388839        0.3182928861
  C        14.3253627674        5.8375419640        1.0940307326
  C        14.1553098910        5.8670908271        2.5269548162
  C        13.0006185168        6.4248285463        3.1273636832
  C        10.1783948608        8.5278422245        0.7923681601
  C        11.2811726822        7.8399931794        0.1689046774
  C        11.4488308011        8.2473136683       -1.2536887011
  C        12.2910685109        9.3085397806       -1.6056415720
  C        12.1329865503        9.8850556394       -2.8736261672
  C        11.2418718712        9.4300829560       -3.8401684793
  C        10.5446970873        8.2783992384       -3.4692144551
  C        10.6169163231        7.7157433804       -2.2400963660
  H        10.0485376632        6.8423387887       -2.0445763551
  H         9.9215151347        7.7396245628       -4.2035157994
  H        11.1536453012        9.9488730758       -4.8295477544
  H        12.6954516798       10.7687961976       -3.2161515022
  H        12.9411850093        9.7010121880       -0.8591091338
  C         9.1722730994        9.2710598330        0.0455217606
  C         8.1263395956        9.9029033795        0.6381017827
  H         7.3923126467       10.5027507086        0.1601885728
  H         9.2509512955        9.2646124313       -1.0679768619
  C        12.8928420341        6.0915922078        4.5249172019
  C        12.1817803409        5.0130000095        4.9775351154
  C        12.3041207668        4.4637707020        6.2652099320
  C        13.2199288180        5.0626282781        7.1273866264
  C        13.9238860926        6.1795454519        6.7374538734
  C        13.7563634336        6.6475865327        5.4473548303
  H        14.2840557198        7.5064571566        5.1336645482
  H        14.4923950690        6.7628287179        7.4272857463
  H        13.3821288047        4.6455642308        8.1314054370
  H        11.7398777339        3.5555025795        6.4260851412
  H        11.5292370985        4.4333935619        4.3236289054
  C        15.2943033005        5.2960514501        3.2932279987
  C        16.3297722963        4.6437702303        2.6621325723
  C        16.4117063321        4.6659537761        1.2447996390
  C        15.4679193053        5.2374907166        0.4614500888
  H        15.3911486315        5.1618284382       -0.6115204411
  H        17.2301693825        4.1594419129        0.7203957092
  H        17.1044766934        4.2624141120        3.2984295556
  H        15.1314653903        5.1322196720        4.3459974273
  C        13.1302849869        6.0633422307       -1.2090966714
  C        12.1187257981        5.2041580277       -1.5711352330
  C        11.9124489361        4.8169236825       -2.8619510130
  C        12.7295795334        5.3465926307       -3.9165082904
  C        13.7231281977        6.2754419886       -3.5678256051
  C        13.9834164527        6.5292048413       -2.2475340123
  H        14.7913112677        7.2334757111       -2.0611613992
  H        14.4668939687        6.5974305521       -4.2969274663
  H        12.5867999480        5.0223081968       -4.9468930772
  H        11.2367229782        3.9951924062       -3.0690203517
  H        11.5348594486        4.5685728893       -0.8594305471
