140

  C         4.2066587666       -0.5575111975       14.0321514683
  C         5.2351680299        0.1042484269       14.7803373294
  C         6.3818630042        0.6191706364       14.0749327051
  C         7.5640648060        1.0404166733       14.8201395889
  C         8.5244439846        1.7700429319       14.1540073039
  C         5.2188917013        0.3247245308       16.2576278578
  C         4.4660348533        1.4128500117       16.6831501952
  C         4.6264153434        1.7830278471       17.9962686198
  C         5.5744920900        1.1254372691       18.8384969575
  C         6.3553872816        0.0594931516       18.3532274952
  C         6.1438846655       -0.3441985526       17.0648925530
  H         7.6452219488        0.9291740266       15.8872036460
  H         9.3985012893        2.0803152889       14.6481198434
  H         3.8488682081        1.9353820939       15.9695425025
  H         4.0721994399        2.6413291735       18.3735410302
  H         5.6105444750        1.4730630567       19.8882354548
  H         6.8941882168       -0.5648248313       19.0470725781
  H         6.6927432263       -1.1303168593       16.5249147409
  C         4.2402310760       -0.5379283934       12.5503224332
  C         3.2548747522       -1.3697570087       11.8419865086
  C         2.0900017316       -1.8965943878       12.5353032406
  C         2.0933267652       -1.8687223459       13.9738619208
  C         3.1547260550       -1.3173427959       14.7136413631
  C         6.3109335965        0.8030225224       12.6428324322
  C         5.2009410163        0.3126908352       11.9216614531
  C         5.0330088652        0.6760534601       10.4643537149
  C         4.3621213566        1.9195420740       10.1455356139
  C         4.1676601029        2.3779999853        8.8061174737
  C         4.8112130558        1.6601263331        7.7957185970
  C         5.5940230556        0.5279650747        8.1207424753
  C         5.7655920181        0.1103189730        9.4553221948
  H         6.3543119768       -0.7679137964        9.7134702192
  H         6.1556250810        0.0056109996        7.3194708142
  H         4.8412139853        1.8662927663        6.6962895288
  H         3.5671136361        3.2699431976        8.6283716246
  H         3.9101034974        2.4860224543       11.0052511852
  C         7.3560084221        1.6169361431       11.9874144154
  C         8.4799448545        1.9642578590       12.7171226932
  H         9.2265173470        2.4334116557       12.1530377921
  H         7.1426243613        1.7732680311       10.9312461740
  C         3.3549739473       -1.6357355928       16.1694884181
  C         4.1855832890       -2.7398543355       16.4631099759
  C         4.2858298338       -3.1225533617       17.8001917748
  C         3.4665921556       -2.6135134010       18.7966839625
  C         2.5390677585       -1.6219095693       18.4350411715
  C         2.5442679699       -1.1384456688       17.1788388685
  H         1.8422238409       -0.2970307326       16.9422875368
  H         1.9778959825       -1.1581168785       19.2509336891
  H         3.4635205706       -3.0398043762       19.8191827308
  H         5.1025448204       -3.7836173354       18.0572824683
  H         4.8203789586       -3.1153469038       15.6937206202
  C         0.9531701735       -2.5089428457       14.5459636463
  C         0.0330385947       -3.3114478611       13.8668864878
  C         0.0730541158       -3.3067579414       12.4527476393
  C         1.0562554041       -2.6220144172       11.8177323396
  H         1.0474194009       -2.4858248512       10.7293740048
  H        -0.7394702572       -3.8246752701       11.9373362687
  H        -0.7008478796       -3.9078396255       14.4610914246
  H         0.8434117994       -2.6029287444       15.6065454965
  C         3.2451055809       -1.5638620046       10.3249683032
  C         3.8763486644       -2.6916137168        9.8656300839
  C         3.7894088632       -3.1349868099        8.5470169755
  C         2.9709843276       -2.4053550852        7.6377091251
  C         2.3813213946       -1.1873774148        8.0590606295
  C         2.4694542104       -0.8058172481        9.4448736887
  H         1.8125790076        0.0023362424        9.7513254935
  H         1.7979921111       -0.4926110738        7.4890303751
  H         2.7478916922       -2.8027279256        6.6399400717
  H         4.3586859490       -4.0087234739        8.2770191285
  H         4.5873722427       -3.2466276269       10.4420650205
  C         0.7667374950        6.4204602301       14.2672813487
  C        -0.2489358073        7.0936948369       14.9606037156
  C        -1.2885353419        7.7119651633       14.2330591509
  C        -2.3529026770        8.4877224253       14.8736507234
  C        -3.4440348706        8.9869298991       14.1797067933
  C        -0.1887319885        7.3991122064       16.3857488102
  C         0.6830399429        8.3871531559       16.8284099940
  C         0.6124806382        8.8528412783       18.1785438455
  C        -0.4483175770        8.3418241088       19.0266215904
  C        -1.2718117015        7.2652254355       18.5393250667
  C        -1.1058973925        6.8392330470       17.2700096118
  H        -2.3322439118        8.6658921394       15.9321552396
  H        -4.1763378453        9.4674071338       14.8251568047
  H         1.3980010092        8.8350697587       16.1662648036
  H         1.3254111761        9.5213962291       18.6201333381
  H        -0.4498425683        8.6403085348       20.0542211130
  H        -2.0112084338        6.7929210642       19.1216208334
  H        -1.7212669837        5.9969501646       16.8650920818
  C         0.7676976044        6.4557257232       12.8057039775
  C         1.7775712979        5.6867639066       12.0680985025
  C         2.9071675860        5.2775512952       12.7195561239
  C         2.8909667176        5.2101184096       14.1796486550
  C         1.8214720606        5.7430984846       14.9268599491
  C        -1.3455534686        7.7171373730       12.7701503489
  C        -0.1966772701        7.1751242086       12.1084777241
  C        -0.1591959967        7.4737781679       10.6154916130
  C         0.5177007295        8.5825511575       10.0839002239
  C         0.3669713820        9.0678824588        8.7469564065
  C        -0.3607115418        8.2996432788        7.8276840484
  C        -1.0560598010        7.1598891457        8.3389448040
  C        -0.9891753033        6.7864410926        9.6582481319
  H        -1.5988912003        5.9085077322        9.9185761334
  H        -1.5900348574        6.5321138493        7.6984476327
  H        -0.3646509891        8.6998246083        6.7934110327
  H         0.8581463840       10.0094852861        8.4273628016
  H         1.3111279443        9.0897104754       10.7052762370
  C        -2.4441713153        8.3441247994       12.0160726945
  C        -3.4639166634        8.8606796992       12.7586436953
  H        -4.3403211682        9.2881432847       12.2818325849
  H        -2.5709283275        8.2254025945       10.9135667347
  C         1.8417664091        5.5133983437       16.3595805427
  C         1.1436211078        4.3829481563       16.8586824580
  C         1.3594758566        3.9657600932       18.1516234852
  C         2.3428221881        4.5925210378       18.9630030848
  C         3.0723869751        5.7213055278       18.4795616923
  C         2.6790367028        6.2011114198       17.2081188012
  H         3.1807810581        7.0947228617       16.8015816586
  H         3.7613488589        6.2910040385       19.1205158960
  H         2.7131243623        4.1362432368       19.9020631233
  H         0.8363296365        3.0706279851       18.4778441529
  H         0.4452047645        3.7725412127       16.2525456246
  C         3.9986454699        4.4389948077       14.8042970517
  C         5.0687098316        3.9723543270       14.0816697077
  C         5.1933933004        4.3077974856       12.7100382708
  C         4.1482350973        4.9009061021       12.0489778014
  H         4.1986877128        4.9023990739       10.9301087295
  H         6.1397785772        4.0905364200       12.2589144052
  H         5.8212934858        3.4541289965       14.6510402878
  H         3.8609164764        4.1844786819       15.8646200825
  C         1.6056513445        5.3406028232       10.6624311417
  C         0.8513429875        4.1966626595       10.3074970113
  C         0.7009082387        3.8144766736        9.0091064743
  C         1.2606221830        4.5746659126        7.9475896292
  C         2.1374545242        5.6589206337        8.2618150780
  C         2.2543489809        6.0294134172        9.6217574150
  H         2.7895618047        6.9228037750        9.9146655180
  H         2.6154386833        6.2997908244        7.5069040416
  H         1.0980007167        4.2769762954        6.9625393388
  H         0.0850618094        2.9734771705        8.9421145999
  H         0.5162631513        3.5424900752       11.0811180422
