140

  C         1.7331514915        0.7719853872       15.0248511599
  C         2.7104083515        1.5235924455       15.7571059235
  C         3.8205730932        2.0389328987       15.0656271271
  C         4.9054885941        2.6096463031       15.7919486568
  C         6.0063289779        3.2162415917       15.1913435335
  C         2.6180214919        1.8704116062       17.2360566274
  C         1.8689149350        2.9001448132       17.8339772293
  C         1.9850497594        3.1354740912       19.1652537470
  C         2.8099023946        2.3774185058       19.9883649043
  C         3.5629337144        1.3362127716       19.4442787302
  C         3.4840192010        1.0933709448       18.0450015145
  H         4.7071035550        2.6342110702       16.8836467875
  H         6.8727688332        3.5614987683       15.8115287080
  H         1.0670724112        3.4159727172       17.3059141474
  H         1.3438378298        3.9393976470       19.5349129876
  H         2.7975256428        2.5822637666       21.0794202248
  H         4.2421404025        0.7762303187       20.0561632747
  H         4.0206058502        0.2322428998       17.6920298498
  C         1.7853268525        0.8743739942       13.4830099252
  C         0.8690759772        0.0786176049       12.7474537876
  C        -0.1927608367       -0.5154241064       13.4020753717
  C        -0.4346090642       -0.4338559492       14.8049076106
  C         0.6790997347        0.0778517200       15.6616165215
  C         3.8996231219        2.0183411182       13.6181791662
  C         2.8648365294        1.5714021656       12.8532041800
  C         2.8866816842        1.9289995329       11.4091227581
  C         1.9667759506        2.8714255031       10.8726487653
  C         1.9251960070        3.2937195581        9.5496128233
  C         2.7516477640        2.6417886585        8.6146042549
  C         3.6763909031        1.7194688875        9.1641879769
  C         3.8089355140        1.4405749069       10.4937101587
  H         4.5372269461        0.7310770408       10.9262788268
  H         4.4039492777        1.1683112940        8.5146728694
  H         2.6063832533        2.8459067786        7.5559060216
  H         1.0902332294        3.9142650158        9.1602381546
  H         1.2359744437        3.3306330312       11.6069874452
  C         5.0739025912        2.6347807930       13.0370525212
  C         6.0499163972        3.1798831257       13.7620386584
  H         6.9232558475        3.5775301483       13.1928142608
  H         5.2190422921        2.6701851879       11.9281030154
  C         0.7765086168       -0.3099784214       17.1359443635
  C         1.5796634716       -1.3891876605       17.6118356252
  C         1.6298145462       -1.7496670481       18.9889453799
  C         0.7093327774       -1.1589948307       19.8682367525
  C        -0.0476629736       -0.1006589186       19.3545863991
  C        -0.0682581880        0.2945831533       18.0798085146
  H        -0.6455268570        1.1146441422       17.6618711761
  H        -0.6974261273        0.4045491118       20.0887527399
  H         0.6066088234       -1.4592370800       20.9249700042
  H         2.3825385108       -2.4667524773       19.2524995979
  H         2.1359485555       -1.8946166988       16.8635813236
  C        -1.6093163623       -0.9554161815       15.3725080382
  C        -2.5495776761       -1.7245738050       14.6391321849
  C        -2.2495092833       -1.9267400784       13.2390533088
  C        -1.1566513769       -1.3400528494       12.6717027728
  H        -1.0446553217       -1.4818435913       11.6234765955
  H        -2.9929703671       -2.4859118196       12.6037748215
  H        -3.4300557874       -2.1433264015       15.1167658865
  H        -1.6920067426       -0.8294997539       16.4080254909
  C         0.8662579090       -0.2052136402       11.2169342481
  C         1.7094069648       -1.2990570555       10.8599809981
  C         1.6822676271       -1.7021852873        9.5232047062
  C         0.8934123853       -0.9873994292        8.5731453327
  C         0.0864380165        0.1325253618        8.9673816628
  C         0.0289216071        0.5032509901       10.3128844882
  H        -0.4739079510        1.2990692271       10.8213566043
  H        -0.6027470328        0.5487523823        8.2301305357
  H         0.8107010761       -1.3182527832        7.5555752896
  H         2.2716290977       -2.6314434711        9.1988838298
  H         2.4880095845       -1.6842753614       11.5262410614
  C        -1.7006376914        7.9488984674       14.6901376064
  C        -2.7973190789        8.6658535553       15.3151527809
  C        -3.8295735978        9.2907196758       14.6334241292
  C        -5.0034542770        9.8571392679       15.3278221688
  C        -6.0545639104       10.3405358514       14.6488295960
  C        -2.7256849879        9.1166034771       16.8320415454
  C        -1.9430886065       10.2670637763       17.1061756840
  C        -1.7179902160       10.7176678530       18.4236966359
  C        -2.3456469211       10.0305862802       19.4538046725
  C        -3.2632443479        8.9613139036       19.1966190264
  C        -3.3692472147        8.4468598122       17.8816876299
  H        -5.0469969697        9.7926169615       16.3961980652
  H        -6.9102873794       10.7491810831       15.1639208915
  H        -1.5236612018       10.8400349396       16.2953778231
  H        -1.2774866031       11.7341705769       18.6531292639
  H        -2.2106671637       10.2435254257       20.4965223058
  H        -3.9735911824        8.4981243828       19.8964198347
  H        -3.9534041319        7.5690073371       17.7788391537
  C        -1.7529557501        7.9610572559       13.2211652701
  C        -0.7769249319        7.1904218224       12.5347582523
  C         0.3175075825        6.6410774401       13.2636536706
  C         0.2917688016        6.5854436042       14.7018565599
  C        -0.7408159610        7.2290399629       15.4254155062
  C        -3.8755503074        9.2782288641       13.1784299533
  C        -2.7372012330        8.6958304887       12.5194013633
  C        -2.7047376260        8.9033641444       11.0258956400
  C        -2.1220595502       10.0975921987       10.5069879677
  C        -2.4396185007       10.5127444965        9.1889118564
  C        -3.3013153300        9.7959083139        8.3790377010
  C        -3.8861598007        8.5929195016        8.9379660307
  C        -3.4888293990        8.1283051817       10.1698276836
  H        -3.9020673018        7.1948903144       10.5843393207
  H        -4.4705785788        8.0287312660        8.2322635529
  H        -3.4861664212       10.1290135779        7.3499256023
  H        -1.9509114318       11.3997627588        8.7926506721
  H        -1.6091502462       10.7537775447       11.1757585481
  C        -4.9462081173        9.9602421741       12.4829812174
  C        -6.0225701101       10.3053228649       13.2066508393
  H        -6.8693818672       10.7856471678       12.6165125034
  H        -4.9164157167       10.0457504916       11.3850044708
  C        -0.7825517834        6.9356941523       16.9387095123
  C        -1.5978863434        5.8918119404       17.2698983933
  C        -1.6375374637        5.3514781822       18.5399915219
  C        -0.7905996263        5.8547480815       19.5449677001
  C         0.1241121859        6.8709787143       19.2823263126
  C         0.1850384114        7.3925687159       17.9287893562
  H         0.9141282855        8.2490866371       17.6587944433
  H         0.8797688267        7.0910594275       20.0598046364
  H        -0.7905474008        5.4914784150       20.5809027457
  H        -2.3234201882        4.5587398279       18.7091345618
  H        -2.3580042582        5.6430628056       16.5772553458
  C         1.4186060178        5.9278841509       15.3671467969
  C         2.4437719454        5.4533561165       14.5914720365
  C         2.3927486519        5.4434181577       13.1629166289
  C         1.2896121226        5.9128935195       12.5108271581
  H         1.2804422063        5.7826056852       11.4296321925
  H         3.2319594018        5.0321202665       12.6370734993
  H         3.3532096516        5.1861545930       15.1397235405
  H         1.5222911486        5.9139239110       16.4129419066
  C        -0.8528060710        6.7166175850       11.0505455014
  C        -1.6046248864        5.5629987944       10.7757413874
  C        -1.6037625343        5.0435206717        9.4522944498
  C        -0.8946166905        5.6888193537        8.4471575612
  C        -0.0960512450        6.7733962264        8.7958580160
  C        -0.1112441497        7.3384911264       10.0603929239
  H         0.7302105783        8.0594280282       10.3077711602
  H         0.5063046033        7.3403662033        8.0691917193
  H        -0.9033128250        5.2629299885        7.4270697258
  H        -2.1453520187        4.1151113340        9.2291602542
  H        -1.9876497689        5.0940080496       11.6509594153
