140

  C         0.8861719411        1.3255174834       14.8849021408
  C         1.9467445289        1.9568762844       15.7195118456
  C         3.0410025559        2.4432673606       14.9579066418
  C         4.1830963013        3.0007341303       15.5992956134
  C         5.3194642588        3.4618584203       14.9098251005
  C         1.8987320307        2.2572888422       17.1828892892
  C         1.1279950871        3.3884142174       17.6238307246
  C         1.1203114534        3.8047407268       18.9358185416
  C         1.7527394318        3.0610743758       19.9123404419
  C         2.4209122035        1.8886307549       19.4792907969
  C         2.5550088348        1.4932946221       18.1054770957
  H         4.0405023251        3.1092348993       16.6572579296
  H         6.1394316136        3.9303550783       15.4249228062
  H         0.4808006060        3.9144678648       16.9252048203
  H         0.5950544709        4.7766602405       19.2095293278
  H         1.6079521756        3.2217845735       20.9462557579
  H         3.0262984546        1.3612468507       20.1435053085
  H         3.0440207415        0.5661275471       17.8263395045
  C         0.8728136314        1.3163192341       13.4677841675
  C        -0.2432304105        0.6738886545       12.8434574522
  C        -1.3597336488        0.1747997948       13.5326887790
  C        -1.3216085745        0.2241824998       14.9768863963
  C        -0.1997087912        0.6704903274       15.6317520633
  C         2.9660580652        2.5461427770       13.4791073697
  C         1.8635045240        2.0401118575       12.7929902210
  C         1.7040241715        2.4848451461       11.2826604718
  C         0.9377567857        3.6548551450       10.9837581362
  C         0.8670128374        4.0181012985        9.6393130450
  C         1.6152165687        3.4054738230        8.6029496601
  C         2.4793124484        2.3933266054        8.9674153650
  C         2.4018110728        1.8700762636       10.2804454250
  H         3.0967453367        1.0761492827       10.5079783969
  H         3.2618799427        2.0203767785        8.3213084008
  H         1.5526497947        3.6798019320        7.5607526737
  H         0.2465509338        4.8497177964        9.2851177965
  H         0.4063810254        4.1561453599       11.7516938338
  C         4.0876186321        3.1018073360       12.7754217334
  C         5.2257797984        3.5194655207       13.4395321858
  H         6.0321816136        3.9581339130       12.8834801585
  H         4.1372322570        3.0027339436       11.7347080115
  C        -0.0350120201        0.2535255020       17.0345613518
  C         0.6498957369       -0.9086188561       17.3183992237
  C         0.6194406143       -1.4885614462       18.5591088758
  C        -0.0738860416       -0.8724709674       19.6206267329
  C        -0.8448394392        0.3115183723       19.3548768777
  C        -0.8350110155        0.8654952148       18.0579017420
  H        -1.4703974833        1.7438838545       17.8118736717
  H        -1.3612010389        0.8507015430       20.1359309916
  H        -0.0936493062       -1.3113278742       20.6414836855
  H         1.1451748417       -2.3880113111       18.8061602886
  H         1.1730287991       -1.3858265520       16.5408427930
  C        -2.4891451749       -0.2915405025       15.6510971088
  C        -3.4706740761       -0.9399599653       15.0033997175
  C        -3.4459175105       -1.0451018782       13.5455340706
  C        -2.4261938765       -0.4867260455       12.8714337072
  H        -2.4070737094       -0.6110614726       11.8223869623
  H        -4.1693872320       -1.6384371162       13.0147448579
  H        -4.3390322961       -1.3505362178       15.5623141812
  H        -2.4780593299       -0.2312057523       16.7526184782
  C        -0.2541985997        0.4942110035       11.3394303549
  C         0.5935589172       -0.4909183998       10.8121373084
  C         0.4890795135       -0.9222176200        9.4418556658
  C        -0.4739441996       -0.3180788255        8.6342149553
  C        -1.3667845224        0.6321688062        9.0850476350
  C        -1.1367004069        1.0736798346       10.3483136472
  H        -1.7317306393        1.8345507327       10.7363655127
  H        -2.1598126911        1.0503190489        8.4595052929
  H        -0.4891394092       -0.5789483184        7.5648818476
  H         1.1187586862       -1.6597532915        9.0752052722
  H         1.2974357841       -0.9904260997       11.4655011159
  C        -2.9623898285        8.5525937117       15.0314903724
  C        -3.9591699896        9.3055702647       15.7269044781
  C        -5.0437625525        9.8508368134       15.0065393068
  C        -6.1331143517       10.6205767101       15.7170203911
  C        -7.1924191730       11.1032429833       14.9479364270
  C        -3.8623525080        9.5638397253       17.1891578996
  C        -3.3620179187       10.7969697947       17.7162116088
  C        -3.3971656053       11.0483247013       19.0719974999
  C        -3.9864485665       10.0932485082       19.9662888110
  C        -4.4456925672        8.8234041262       19.4328205880
  C        -4.4880240234        8.6168340842       18.0625879375
  H        -6.1543281284       10.6216189361       16.7660514111
  H        -8.0186562368       11.5621386889       15.4647778575
  H        -2.7602302836       11.5460888511       17.0359023517
  H        -2.9078118235       11.9162166076       19.5168219877
  H        -3.9756605666       10.2689521233       21.0509423650
  H        -4.8385540981        7.9564846350       19.9404104088
  H        -4.8601540658        7.6813500564       17.6088360733
  C        -2.9407733294        8.6179848477       13.5377991827
  C        -1.9375661624        7.8515054384       12.8070460843
  C        -0.9170677363        7.1385304795       13.5075258487
  C        -0.8419645392        7.2328468388       14.9589693967
  C        -1.9027477804        7.7716495482       15.7037283236
  C        -5.0353529852        9.8715394156       13.5703812929
  C        -3.9534371485        9.2636950251       12.8232271772
  C        -3.8803812619        9.6653025083       11.3465185337
  C        -3.1708796012       10.8005458121       10.9510941631
  C        -3.3349131083       11.1541920132        9.6020812652
  C        -4.1258815810       10.4190665649        8.6677749643
  C        -4.7915449658        9.2848899739        9.0821014610
  C        -4.7144534495        8.9731962270       10.4459855627
  H        -5.2570551756        8.1899594467       10.8898850936
  H        -5.3247885057        8.6727286833        8.3937281317
  H        -4.0156179562       10.6736676159        7.5635911493
  H        -2.7575309255       12.0174834724        9.1777109880
  H        -2.4078289023       11.1340738973       11.6068429957
  C        -6.1611984525       10.3954373647       12.9133011684
  C        -7.1952650966       11.0181006826       13.5383427409
  H        -8.0032223817       11.4848950303       12.9719972674
  H        -6.2220342698       10.3590604996       11.8574411277
  C        -1.9639714577        7.3849423248       17.1339696304
  C        -2.7614715491        6.3022570736       17.6297787397
  C        -2.6740516624        5.7862755409       18.9036656622
  C        -1.7127737826        6.3053018114       19.8303415190
  C        -1.0405731648        7.4088802601       19.3734055938
  C        -1.1691119807        8.0456407923       18.0544471238
  H        -0.4522315980        8.7819472608       17.7595549174
  H        -0.2107609802        7.7646152918       19.9417639025
  H        -1.4862426333        5.8841626612       20.8373752175
  H        -3.4359646354        5.0569526363       19.1813698899
  H        -3.5864176939        5.9584534265       17.0162405032
  C         0.2951960694        6.6180882907       15.6167966726
  C         1.2983318658        5.9419726282       14.8886504336
  C         1.1469077091        5.7964904023       13.5184289668
  C         0.1193547490        6.4656016409       12.8163561432
  H        -0.0595764146        6.3926853633       11.7620868132
  H         1.8937427981        5.2469169432       12.9432715846
  H         2.2572430355        5.6101446863       15.3420848974
  H         0.4469793994        6.7432773021       16.7184739001
  C        -1.9860694200        7.6309433509       11.3153648961
  C        -2.8315651350        6.6014838064       10.8411482142
  C        -2.9020813817        6.3292213031        9.4290963485
  C        -1.9207824286        6.9278974020        8.6044885818
  C        -0.9540664432        7.8183679168        9.0771613629
  C        -1.0231283611        8.1747971008       10.4578549611
  H        -0.1762890232        8.8150906415       10.8070544995
  H        -0.0987092664        8.1935408086        8.5049940655
  H        -1.9010698589        6.6154226734        7.5887348228
  H        -3.5733454567        5.5347998017        9.0508121983
  H        -3.6299493718        6.2880821660       11.4700466950
