140

  C        16.2428096831       -0.3183305646        2.7622585413
  C        17.3505940266        0.4228909893        3.3209568090
  C        18.4094552761        0.9622590945        2.6024893771
  C        19.5518194145        1.5741720274        3.2378501893
  C        20.5241899397        2.1403699778        2.4771140913
  C        17.3100053690        0.8257880741        4.7443980269
  C        16.3596701512        1.7617380879        5.2572663322
  C        16.4091484608        2.1282644383        6.5942735531
  C        17.3516862603        1.5895525610        7.4868405209
  C        18.2231064023        0.6141143994        6.9783215541
  C        18.2191870151        0.2204918375        5.6497274691
  H        19.6589589371        1.5783166035        4.3223219181
  H        21.3172529839        2.6788919917        3.0232496817
  H        15.6870435105        2.1745095681        4.5634111899
  H        15.6613334825        2.8225643404        6.8816754301
  H        17.2153215803        1.8970576949        8.4612419387
  H        18.9003565756        0.1293203057        7.6200180496
  H        18.9535079734       -0.4723076647        5.2798380735
  C        16.1810370964       -0.3164436264        1.3096641779
  C        15.0760608252       -0.9915378146        0.6776058278
  C        14.0671482381       -1.6599886907        1.3744914738
  C        14.0886133254       -1.6416830269        2.8012642019
  C        15.2590237105       -1.0647027866        3.5375507676
  C        18.3916162011        0.9184710894        1.1551441845
  C        17.2257541501        0.3909362131        0.5619633240
  C        16.9808117812        0.6943450838       -0.9341005853
  C        16.3079590680        1.8914996937       -1.2716748917
  C        16.2032233215        2.3206216084       -2.6343893778
  C        17.0162328449        1.7563255040       -3.6582068795
  C        17.8787640960        0.7254945088       -3.1918898908
  C        17.7705649717        0.1788914423       -1.9680111942
  H        18.2712125110       -0.8158895922       -1.8003588029
  H        18.3766190795        0.2284550160       -3.9871270629
  H        16.8618098731        2.0740001258       -4.6976538262
  H        15.5993150401        3.1723454062       -2.8514473761
  H        15.7956333380        2.5156187025       -0.4909620853
  C        19.4451636392        1.4659849628        0.4294553219
  C        20.5287549609        2.0366618854        1.0508661313
  H        21.3038438682        2.5259484165        0.4248418419
  H        19.2645424135        1.4844774396       -0.6887612255
  C        15.3323089131       -1.4757113219        4.9355541674
  C        16.1866662110       -2.4791485272        5.2685516939
  C        16.1922296225       -3.0849188873        6.5600814428
  C        15.3133845169       -2.5572017971        7.5093259438
  C        14.3898670626       -1.5992500464        7.2124031814
  C        14.4298969177       -0.9407599191        5.9409459781
  H        13.7279901772       -0.1687463082        5.6860293441
  H        13.5908460990       -1.3560816001        7.9922248257
  H        15.3165124310       -3.0489435061        8.5460835064
  H        16.9475334500       -3.8636323150        6.8368493217
  H        16.9147083105       -2.8093022308        4.4546105204
  C        13.0817555192       -2.3611333902        3.4455318416
  C        12.0138836569       -2.9189712796        2.7315756952
  C        11.9257280651       -2.7167797714        1.3385854642
  C        13.0227744262       -2.2496976802        0.6686275707
  H        12.9595829023       -2.1953007107       -0.4166007930
  H        11.0515429209       -3.0624188034        0.7834756834
  H        11.2233511212       -3.3173288006        3.3902301376
  H        13.2781551181       -2.4306247731        4.5164888502
  C        15.1302633255       -1.3258127538       -0.8250710566
  C        15.9934795573       -2.3212764283       -1.1297366608
  C        16.0681710827       -2.8573748192       -2.4064747928
  C        15.2466003025       -2.4160505142       -3.4238649200
  C        14.2833187556       -1.4312106850       -3.0986698072
  C        14.3036774975       -0.7986640419       -1.8001894196
  H        13.6225521520        0.0024732709       -1.5712883119
  H        13.5440495992       -1.0830266111       -3.8346085136
  H        15.3252681278       -2.9594521099       -4.3798458181
  H        16.7381320209       -3.6999420963       -2.6373612264
  H        16.7657480158       -2.6408748858       -0.4240178591
  C        12.7467030978        6.8786819029        2.6493760888
  C        11.6035900070        7.5214572351        3.3314733550
  C        10.5570376353        7.9030913348        2.5370883187
  C         9.3495500827        8.4629949186        3.0974963041
  C         8.2814449250        8.9659462622        2.3521738568
  C        11.6599683756        7.8392456419        4.8273210744
  C        12.3885473223        8.9188493558        5.2505099182
  C        12.3113003430        9.4566214877        6.5604154240
  C        11.5584927428        8.6997919991        7.4651892282
  C        10.9028852323        7.5341296106        7.1066390880
  C        10.8777162123        7.1085225203        5.7521495992
  H         9.4122435144        8.5941499351        4.1729630187
  H         7.4336353223        9.4339536912        2.8639090586
  H        12.9374404081        9.4865934644        4.4982471675
  H        12.9506659199       10.2671949575        6.8317201626
  H        11.4904881807        9.1586040143        8.4037833638
  H        10.2376229276        7.0448082959        7.8315793752
  H        10.3795732815        6.2342537352        5.4043119865
  C        12.7611641405        6.7868330011        1.1353941403
  C        13.7483931045        6.0444537997        0.4449984429
  C        14.9188617478        5.6147080359        1.1511848080
  C        14.9287218095        5.7972265280        2.5803174934
  C        13.8394670293        6.2671341420        3.2922375124
  C        10.6266079837        8.0056876633        1.0970062944
  C        11.7307387629        7.4825296015        0.4095020596
  C        11.8896783278        8.0818187009       -0.9808693974
  C        12.6955311518        9.2270623649       -1.0948099992
  C        12.8786457341        9.8823107838       -2.3027221448
  C        12.1771394620        9.4721412092       -3.4394477450
  C        11.3838543622        8.3426666249       -3.3509308157
  C        11.1890992669        7.6497896925       -2.1152646738
  H        10.4808722792        6.8331694764       -2.0661769218
  H        10.8787489971        7.9872212072       -4.2838126608
  H        12.5007942551        9.9189420984       -4.3591840906
  H        13.5357831216       10.7199405191       -2.3377409155
  H        13.3095388808        9.5005631449       -0.2751754635
  C         9.5393248087        8.5153904129        0.3447671792
  C         8.4045422417        8.9241500589        0.9450931188
  H         7.6792120717        9.5139759547        0.4104196143
  H         9.6733852215        8.6585818199       -0.7073210005
  C        13.7968507720        5.7739599675        4.7867004346
  C        13.0569562114        4.5941686466        5.0239468779
  C        12.9255628966        4.1577244215        6.3703197586
  C        13.6849975940        4.6532315919        7.4165779250
  C        14.5041076561        5.7753287176        7.0916328764
  C        14.5511292843        6.3682885022        5.8051315276
  H        15.2445020524        7.1816522812        5.5860104206
  H        15.0712000878        6.1990971678        7.8824062517
  H        13.6613735344        4.2148710154        8.4040344869
  H        12.3397724402        3.2272663938        6.4877191514
  H        12.4222663858        4.2300955522        4.2448762311
  C        16.0233942839        5.2080545098        3.2382878069
  C        17.0632656865        4.5142468082        2.5731767686
  C        16.9953276814        4.3848127521        1.1620674335
  C        15.9303664735        4.8935812957        0.5382192749
  H        15.7936890273        4.7338735223       -0.5064874065
  H        17.6195761476        3.7091184113        0.6082155462
  H        17.9242957189        4.2098372089        3.1457815553
  H        16.0209966381        5.2198207059        4.3326503691
  C        13.5117061172        5.6675033921       -0.9857905213
  C        12.4797868379        4.7701491051       -1.2676617667
  C        12.1850968340        4.3651053182       -2.5598911842
  C        13.0605020231        4.7747227273       -3.5732156389
  C        14.1189612373        5.7197872734       -3.3497905740
  C        14.2540907741        6.1748088735       -2.0852378856
  H        14.9825296792        7.0035001007       -1.9239637744
  H        14.6045703826        6.0730240498       -4.2943376148
  H        12.8765336006        4.3289078950       -4.6093927275
  H        11.3052517261        3.7278594427       -2.7691794144
  H        11.9009595133        4.3876673784       -0.4502039960
