140

  C         4.0238506154       -0.4813294614       14.2933449670
  C         5.0608901248        0.2697629205       14.9963137389
  C         6.2315866114        0.7074146066       14.3235150196
  C         7.2706030775        1.4258342911       14.9972188900
  C         8.2984780418        1.9718154327       14.3253326066
  C         5.0737086715        0.7282898405       16.3829472283
  C         4.1896959984        1.7142913165       16.8949292398
  C         4.1164774610        2.0275504485       18.2249930503
  C         5.0049413177        1.3995182557       19.1336992603
  C         5.9114194833        0.4471077288       18.6887384067
  C         5.9592283449        0.1360214995       17.3465636822
  H         7.2026621097        1.6489553752       16.0814064107
  H         8.9865542341        2.4162507380       14.9836280624
  H         3.5179039740        2.2510468162       16.2440135211
  H         3.3733063305        2.7580333899       18.5669699380
  H         5.0540161619        1.8560059945       20.1573295150
  H         6.4236377342       -0.1401073100       19.4185154973
  H         6.5694341178       -0.7234044946       16.9815011484
  C         4.0737963357       -0.4844294723       12.7717887479
  C         3.1121696384       -1.2861266334       12.1204386721
  C         2.0041972911       -1.8583631576       12.8465506042
  C         1.8318795742       -1.7436207563       14.3413648325
  C         2.8958464955       -1.1031967474       15.0524953061
  C         6.2243006001        0.7319371593       12.8522950844
  C         5.1323749741        0.1956201198       12.1164774638
  C         5.1129106362        0.6376951620       10.6798685705
  C         4.5528258542        1.8609393801       10.1898559704
  C         4.8240408484        2.2522366692        8.8554860895
  C         5.6804042288        1.4695393413        8.0809845408
  C         6.2195059369        0.2839714896        8.5719368364
  C         5.9981514889       -0.1413818593        9.8801117657
  H         6.2950590941       -1.0533971761       10.3107182299
  H         6.8186808477       -0.3026895866        7.8888743077
  H         5.8344261462        1.8279370639        7.0535691845
  H         4.4630073537        3.2255357677        8.5412403924
  H         3.9651829820        2.3637693707       10.9570196994
  C         7.3074333403        1.3864511306       12.1720060155
  C         8.2765468117        2.0184600689       12.8802276177
  H         9.1429468700        2.3740303569       12.3250577904
  H         7.3799251007        1.3136331359       11.0902400416
  C         3.0200312343       -1.3067195896       16.4775716320
  C         3.7306973207       -2.4272721494       16.8637833403
  C         3.6149930999       -2.8603139436       18.1913183741
  C         2.8252548782       -2.1060382439       19.0725799720
  C         2.1582317125       -0.9348662434       18.6853300111
  C         2.2397790481       -0.5559785792       17.3664107427
  H         1.6125215818        0.1763604191       16.8773206864
  H         1.4930892607       -0.5449765924       19.4419214510
  H         2.7626935787       -2.4763290410       20.1521884316
  H         4.1970738437       -3.6666140855       18.5186893166
  H         4.3360669964       -2.9729981250       16.1157974890
  C         0.7871893469       -2.5228483572       14.9830158712
  C        -0.0814960108       -3.2512006253       14.1987677156
  C        -0.0829480761       -3.1684428535       12.7837973031
  C         0.9726586644       -2.5524215134       12.1163103959
  H         1.1181129704       -2.7552162416       11.0702160089
  H        -0.7221576548       -3.7910610254       12.1866154406
  H        -0.8276297482       -3.9726706217       14.6665080287
  H         0.8952868749       -2.7051625881       16.0597243130
  C         3.0825486172       -1.3921809606       10.6448279218
  C         3.8083402877       -2.5200764099       10.1887856189
  C         3.8858275085       -2.8539294568        8.8810238310
  C         3.1076254278       -2.0613482700        7.9833597288
  C         2.2490530141       -1.0791673270        8.4351950970
  C         2.2337697126       -0.7061615622        9.7580002667
  H         1.6324335341        0.1622528924       10.0464618575
  H         1.6855513018       -0.5525090591        7.6870633966
  H         3.0458296973       -2.3635793906        6.9433550283
  H         4.4588486267       -3.6708887077        8.5732115208
  H         4.3317876211       -3.1271715167       10.9389500607
  C         0.4479730387        6.8133615016       14.0615907952
  C        -0.5616091505        7.5224003144       14.8141371014
  C        -1.6500650565        8.0279968702       14.0470395591
  C        -2.7759805317        8.6151758253       14.6813589272
  C        -3.7992190612        9.1571738773       14.0124610580
  C        -0.5285838805        7.8756239773       16.2860283630
  C         0.2351613447        8.9614015879       16.7249731626
  C         0.2831395335        9.4451459468       18.0361013143
  C        -0.6144378095        8.8399679821       18.9501816721
  C        -1.4336705621        7.7794390348       18.5309184538
  C        -1.3711490633        7.2803565170       17.2319219513
  H        -2.8287536186        8.5951733350       15.7700792811
  H        -4.6915713448        9.5631009408       14.4915111574
  H         0.9300717691        9.4576939729       16.0457366061
  H         0.8194664388       10.3620935705       18.1755199674
  H        -0.6374541405        9.0772079609       20.0120297446
  H        -2.0855083528        7.3109584763       19.2880981272
  H        -1.9064293977        6.4081669950       17.0228630748
  C         0.4279184260        6.7060663809       12.5271133487
  C         1.5217441212        5.9284875807       11.9925670507
  C         2.6149315214        5.4827169651       12.7408138914
  C         2.5871148722        5.5975526398       14.1378674848
  C         1.4667037831        6.1807682483       14.8128484017
  C        -1.5542109229        8.0912423509       12.5792096609
  C        -0.5743770982        7.4207524517       11.8787972331
  C        -0.6329995013        7.6489586608       10.3761012736
  C         0.2170082237        8.6193861811        9.8160728283
  C        -0.0308721894        9.0534888813        8.4861615025
  C        -0.9922392349        8.4256880445        7.6801809150
  C        -1.7070272446        7.3608854554        8.2540648281
  C        -1.5535172140        7.0074474508        9.5672493029
  H        -2.1211627971        6.1615365395        9.9003928632
  H        -2.4104269147        6.8306830831        7.5958601547
  H        -1.1898022483        8.7676481087        6.7107422995
  H         0.6688872418        9.7299396480        8.0149968947
  H         1.1271116022        8.9947963797       10.4023465719
  C        -2.6170784169        8.8932393387       11.9199976171
  C        -3.6850303667        9.4447436846       12.6349669891
  H        -4.4776864148       10.0430953645       12.1972116958
  H        -2.4615355995        9.1010106491       10.8307227461
  C         1.3788582011        5.9085895039       16.2547317363
  C         0.6825813005        4.7947422186       16.6338770573
  C         0.7127186067        4.3995615827       17.9549163060
  C         1.4970110696        5.0555882067       18.8958161916
  C         2.1380450726        6.2386243082       18.4767456119
  C         2.1630448396        6.6299889550       17.1792041301
  H         2.6855221118        7.4653717060       16.7774379654
  H         2.7182758328        6.8439130039       19.1910061032
  H         1.6151588872        4.7680687240       19.9206916530
  H         0.1832191741        3.4633879484       18.2789261414
  H         0.0976426871        4.1662449713       15.9196033589
  C         3.6992486761        5.0073421447       14.8664390008
  C         4.6912596589        4.2923388520       14.2261087793
  C         4.6483632464        4.1564771398       12.8174970062
  C         3.6609844344        4.7202709291       12.1086322507
  H         3.6546759971        4.7842414327       11.0145143470
  H         5.4655923155        3.6640266164       12.2549513439
  H         5.5540242112        3.8165784439       14.6831611345
  H         3.6564353792        4.9320694272       15.9508025883
  C         1.4821872319        5.4667684746       10.5337064792
  C         0.5852375189        4.4563960935       10.1912502207
  C         0.5521476811        3.9217156876        8.8602619305
  C         1.4243553549        4.3725430220        7.8889457676
  C         2.2811410530        5.4719645118        8.2109626131
  C         2.2649713961        6.0078101329        9.5143688379
  H         2.8421289942        6.9292748118        9.6972259901
  H         2.8281236639        6.0347253740        7.4786757297
  H         1.5046508674        3.9293593593        6.8555373879
  H        -0.1805096458        3.1677834413        8.5716166530
  H        -0.1741180350        4.2791838612       10.9556029815
