140

  C        14.5287315735       -0.0264766830        0.9390231125
  C        15.4207540436        0.6903627892        1.7645028138
  C        16.5732994664        1.3091322544        1.1660885588
  C        17.6248215200        1.9292966701        1.9173327463
  C        18.6085416604        2.6468682157        1.2569314775
  C        15.2884201319        0.9528375420        3.2444425216
  C        14.5070432108        2.0099521050        3.7136967107
  C        14.5537743952        2.4468448087        5.0419014174
  C        15.4367150274        1.7841440409        5.9199527110
  C        16.1904833421        0.6823388526        5.4684181375
  C        16.1054467197        0.2194872253        4.2168535674
  H        17.5793923301        1.9046263290        3.0186529445
  H        19.3734374786        3.0491017088        1.9180791999
  H        13.8438713492        2.5169481585        3.0863310543
  H        13.9765093888        3.2868247069        5.4406957293
  H        15.6473182547        2.0641318408        6.9736803517
  H        16.7912177492        0.2076341942        6.2472481638
  H        16.5599103121       -0.7546600580        3.9456549633
  C        14.6029858328        0.0473115711       -0.5326506147
  C        13.5454940554       -0.6037437570       -1.2892545483
  C        12.4385015333       -1.1720842354       -0.6958714912
  C        12.3688874564       -1.2365268336        0.7772630217
  C        13.4234570190       -0.7512042866        1.5482836082
  C        16.6107213605        1.4606958524       -0.2366267899
  C        15.6639719070        0.8148063601       -1.0950913251
  C        15.7093255067        1.1641693558       -2.6248855339
  C        14.9090155078        2.1210364065       -3.1702730691
  C        14.8141789444        2.3812404853       -4.5771604118
  C        15.5848663297        1.6455934919       -5.4563305692
  C        16.4670727940        0.6812629095       -4.9000075604
  C        16.5080770509        0.4029740219       -3.5393872643
  H        17.0586411841       -0.3696868038       -3.0836039165
  H        17.0702543604        0.0983789090       -5.5961638935
  H        15.4577510023        1.8280766073       -6.5320274590
  H        14.0376362311        3.0577900930       -4.9601514474
  H        14.2309365754        2.6262942330       -2.4737530968
  C        17.6479436512        2.2323971058       -0.8583879647
  C        18.6905470536        2.7675603600       -0.1289935117
  H        19.4809316320        3.3848172478       -0.5957695889
  H        17.6785420908        2.1893455625       -1.9413714235
  C        13.3816909336       -1.1405644758        2.9915781219
  C        13.9751908809       -2.2474427741        3.5460265328
  C        13.7687236726       -2.5136448472        4.8822424533
  C        12.8528191087       -1.8338233525        5.6884539353
  C        12.3353382384       -0.6427541836        5.1979917657
  C        12.6070299614       -0.2584491107        3.8715707603
  H        12.1330305996        0.6412847413        3.4452199528
  H        11.7817416366        0.0684724583        5.7764230266
  H        12.7197723492       -2.0894333596        6.8070455280
  H        14.2784471515       -3.4162405588        5.1607350901
  H        14.3783234700       -3.0269718804        2.8928073537
  C        11.2533176091       -1.9462932767        1.3646786198
  C        10.2760964542       -2.5557209642        0.5783004073
  C        10.2821014171       -2.3009132488       -0.8406441069
  C        11.3767996896       -1.7722831333       -1.4282433618
  H        11.3533410490       -1.6122346353       -2.4857343664
  H         9.4801652491       -2.7093218156       -1.4589378979
  H         9.4395417017       -3.0743170987        1.0120971905
  H        11.2066498124       -2.0537786532        2.4272448942
  C        13.7301552387       -0.8628954573       -2.7938855675
  C        14.5379020499       -1.9190969461       -3.2555565641
  C        14.3061032766       -2.5284502602       -4.4955533272
  C        13.3391755527       -1.9811336589       -5.3868045925
  C        12.7617817510       -0.7761391445       -5.0235720371
  C        12.8568437955       -0.2937624384       -3.7445556259
  H        12.2882970174        0.5834377587       -3.4252925601
  H        12.0560432266       -0.1998083655       -5.6469646947
  H        13.1444814564       -2.4603651863       -6.3836712510
  H        14.8391313293       -3.4522870585       -4.7476701815
  H        15.1484769245       -2.3942681694       -2.5329716578
  C        10.8582902145        7.2683026171        1.0427432345
  C         9.7410871411        7.8597034455        1.7792843548
  C         8.6892099740        8.4310300823        1.0074919890
  C         7.6010101517        9.0208525995        1.7042510697
  C         6.5578314376        9.6893229683        1.1176799352
  C         9.8485362945        8.3484511861        3.1522912799
  C        10.5080019911        9.5517153603        3.4939704645
  C        10.4253308989       10.1394227268        4.8406450629
  C         9.6362690420        9.4742247870        5.8130806993
  C         9.0348309434        8.2832997214        5.4579540329
  C         9.0977118520        7.7660163199        4.1491271819
  H         7.7465491297        9.0697068287        2.7494248581
  H         5.8127055510       10.2326626351        1.6355500528
  H        11.1750456857       10.0869806924        2.8392512693
  H        11.0140026397       10.9586784334        5.0339077515
  H         9.5975224347        9.7004066795        6.8861191288
  H         8.4591560871        7.6716649464        6.1251029164
  H         8.6245289769        6.8286162046        3.9554336662
  C        10.8171904003        7.1908171030       -0.5132818621
  C        11.8157842626        6.3564419130       -1.2187942470
  C        12.9934189329        5.9175844136       -0.5190586223
  C        12.9465404702        6.0577891958        0.9929875510
  C        11.8948788897        6.6113145800        1.6903358346
  C         8.7209368624        8.5614731536       -0.4551200202
  C         9.7276383470        7.8624171510       -1.1897031475
  C         9.5884540930        8.0545527760       -2.7014804853
  C        10.1564480134        9.1808763494       -3.2105222076
  C        10.1257293801        9.4477970100       -4.5611724086
  C         9.3636666312        8.6149184602       -5.4375552821
  C         8.6192922128        7.6221326537       -4.8537052074
  C         8.7292552149        7.2631146734       -3.4773212532
  H         8.1225960148        6.5416483724       -2.9658204580
  H         7.8999486399        7.0443472240       -5.3643820258
  H         9.1583330969        8.8889290647       -6.4599068421
  H        10.6594699108       10.3104226427       -5.0384228565
  H        10.6631702093        9.9398662531       -2.6092694700
  C         7.6122950669        9.2054432626       -1.0705164258
  C         6.5646915638        9.8240123133       -0.3443099857
  H         5.8572013940       10.3728906292       -0.9612917215
  H         7.6486341295        9.1203944129       -2.1060426422
  C        11.8295903780        6.2113520792        3.1445015947
  C        11.0667027790        5.1107977818        3.5410887089
  C        11.1299996602        4.7107658810        4.8797582215
  C        11.9831596436        5.4475063765        5.8211701621
  C        12.7010031934        6.5895315005        5.3942295807
  C        12.6753039427        6.8607811802        4.0237605565
  H        13.3571337721        7.6551179671        3.6645928452
  H        13.3411523067        7.1592724250        6.0513253247
  H        11.9950042260        5.2060210848        6.9014680503
  H        10.5804966984        3.8408184620        5.2184889243
  H        10.4316067149        4.6021905209        2.8334741013
  C        14.0118370599        5.3560377898        1.7433234376
  C        15.1304504001        4.8974295709        1.1044023134
  C        15.2168037961        4.9351658091       -0.2914645901
  C        14.1418735636        5.3384072546       -1.0569577827
  H        14.1334210027        5.1295463846       -2.1075883086
  H        16.0256650065        4.5307454755       -0.8378051094
  H        15.8305570283        4.2752967409        1.6785360407
  H        13.8318217377        5.3066161896        2.7769134860
  C        11.6867692378        5.9279501816       -2.6149963747
  C        11.0423898901        4.7213936239       -2.9686597646
  C        11.0765832343        4.2308206119       -4.2953299587
  C        11.8365016110        4.9073972675       -5.2824299176
  C        12.4950824622        6.0830261073       -4.9240079419
  C        12.4291078161        6.5698666836       -3.6488884000
  H        12.9996722976        7.4645511270       -3.4495419095
  H        13.0741349749        6.6011351019       -5.6725792540
  H        11.8927847433        4.3819456395       -6.3143895554
  H        10.4827853372        3.3432021390       -4.5057789156
  H        10.5720912009        4.2043951144       -2.1648546787
