140

  C        14.0336874854        0.0732861825        0.9844160017
  C        15.0936697675        0.6961188707        1.6992617281
  C        16.1415029427        1.2825683455        0.9548974641
  C        17.2427238941        1.8281157548        1.6266807266
  C        18.3611749014        2.2095079530        0.9562648458
  C        15.1043187847        1.0117611212        3.1649555452
  C        14.2281597236        2.0933623096        3.6019169246
  C        14.2974771597        2.5084773477        4.9801222006
  C        15.0197951537        1.8082001258        5.8710393607
  C        15.8997300784        0.7834111637        5.4359062848
  C        15.8613497453        0.3373497874        4.1019726436
  H        17.2752237991        1.7292778694        2.7194220359
  H        19.2476753090        2.6071925189        1.4959874087
  H        13.5811117327        2.4702488773        2.8288004288
  H        13.6847922702        3.3469880984        5.2538215256
  H        14.9406404681        2.0683455022        6.9187957213
  H        16.4634429092        0.3045759758        6.2446641878
  H        16.5286819461       -0.4324441336        3.8553046081
  C        13.9723488983        0.1388642460       -0.5334761782
  C        12.9288484385       -0.5056698812       -1.2432884146
  C        11.8482404943       -1.0600119290       -0.5652068193
  C        11.9188841509       -1.1217753291        0.8875510840
  C        12.9084626461       -0.5536168445        1.6829175962
  C        16.0513176346        1.4401336128       -0.4610229805
  C        14.9243977400        0.9947061217       -1.1749996738
  C        14.9005001189        1.4306732118       -2.6321019726
  C        14.1125317985        2.4932327443       -3.0296536161
  C        13.9340118873        2.8418448603       -4.3708875298
  C        14.7590589720        2.2465292169       -5.3040487186
  C        15.6644646105        1.2398889141       -4.9375895323
  C        15.7307774090        0.8461759223       -3.5917623842
  H        16.3221835963       -0.0161033656       -3.2853934964
  H        16.3259503386        0.9687301524       -5.7219772141
  H        14.7445707754        2.5003720980       -6.3833842068
  H        13.2937257711        3.7059367393       -4.5474772947
  H        13.5172291756        3.0053620851       -2.2889451787
  C        17.1493910398        2.0744469580       -1.1893114506
  C        18.3086702308        2.3758986751       -0.4950052169
  H        19.1649356587        2.7699339981       -1.0470713166
  H        17.1170414855        2.2312429253       -2.2641157339
  C        12.9534966912       -0.9634448187        3.1301410177
  C        13.8698231020       -1.9683298692        3.4625572933
  C        13.8431052151       -2.6751176138        4.6025643222
  C        12.9163328321       -2.2896010330        5.5850247819
  C        12.0756914527       -1.1976521586        5.3711338809
  C        12.0261155238       -0.5203604790        4.1394837387
  H        11.4224336934        0.4267524481        4.0388034817
  H        11.4310353733       -0.8595166145        6.1935391791
  H        12.8668057494       -2.8223108960        6.5251128756
  H        14.4886337956       -3.5469448724        4.7820456602
  H        14.5720313513       -2.2993186381        2.6621062967
  C        10.8398939275       -1.8918264128        1.5202446649
  C         9.7651438022       -2.3149637520        0.7965867275
  C         9.6348374151       -2.1687452752       -0.6110707006
  C        10.7237706116       -1.6244390534       -1.2646392378
  H        10.6140933342       -1.4924877840       -2.3698263135
  H         8.6952371780       -2.4523315921       -1.1047998555
  H         9.0275169266       -2.9765444109        1.2131570049
  H        10.7771584131       -2.0482869455        2.5511652114
  C        13.0934975409       -0.8261893447       -2.7304482742
  C        14.1138087804       -1.7545674696       -3.1233727457
  C        14.0613740461       -2.1831959569       -4.4548660491
  C        13.1339048319       -1.7019186938       -5.3379821793
  C        12.1957042652       -0.7265786565       -4.9449329924
  C        12.2007160929       -0.2647096985       -3.6706378481
  H        11.4701937135        0.5038519756       -3.5281895486
  H        11.4151548844       -0.4821338199       -5.6448029728
  H        13.1936901430       -1.8553027527       -6.3915579637
  H        14.6590063298       -3.0426540585       -4.8553158709
  H        14.7772085655       -2.2844300318       -2.4385790335
  C        10.3194982528        7.2633620289        1.2325787265
  C         9.2562127869        8.0099470191        1.8790949791
  C         8.2209400191        8.5273440116        1.1393354710
  C         6.9168876096        9.0030996607        1.7764531714
  C         5.9669605299        9.6039722202        0.9943862307
  C         9.2723748972        8.2784518139        3.3437821534
  C        10.1204189122        9.2957992176        3.7144758989
  C        10.2172794881        9.6963305246        5.0706948752
  C         9.4250758606        9.1870206711        6.1354493758
  C         8.5589675845        8.1778449983        5.7252441264
  C         8.4505343098        7.7444791802        4.3676913150
  H         6.8833915162        8.8740520166        2.8625783063
  H         5.0474850749        9.9108707593        1.5062845905
  H        10.6851303855        9.7498521436        2.9595460619
  H        10.9222378581       10.5318984768        5.2869892942
  H         9.7595573032        9.3893867449        7.0896542428
  H         7.8560467665        7.8399952083        6.4699918775
  H         7.6554846579        7.0115904043        4.1973863713
  C        10.3468506330        7.2715123755       -0.2060938696
  C        11.4135412908        6.6591054666       -0.8227684143
  C        12.4903534849        6.1014675371       -0.1041482422
  C        12.4182149655        6.1181125059        1.3689885435
  C        11.2435639418        6.6221256502        2.0450205570
  C         8.3632834981        8.6613175743       -0.2544636353
  C         9.4093691565        8.0613799796       -0.9629160343
  C         9.4911590165        8.3680544410       -2.4060907052
  C        10.3391795230        9.4164671181       -2.8404450132
  C        10.4763614687        9.8839755150       -4.1884447735
  C         9.6067382343        9.3083521248       -5.1003613549
  C         8.7619993844        8.2424053220       -4.6801205904
  C         8.6440090264        7.7457382688       -3.3938515800
  H         7.8391724264        7.0973541012       -3.0982540298
  H         8.1825247698        7.8236211715       -5.4795758295
  H         9.5663920597        9.6654166874       -6.1256216202
  H        11.2473863290       10.5640293310       -4.4594629468
  H        10.9737512454        9.8736612914       -2.0735019740
  C         7.4172108005        9.4520042863       -0.9677258748
  C         6.2277096126        9.8737839056       -0.4157467206
  H         5.3368130150       10.2723784740       -0.9224886795
  H         7.6312997399        9.5853545249       -2.0658152494
  C        11.0590943973        6.1441693699        3.4405200753
  C        10.3746139621        5.0404505971        3.8391532927
  C        10.4336049392        4.5071321341        5.1312824891
  C        11.1001611040        5.2005584478        6.0927494258
  C        11.9261978415        6.2674858384        5.7501456937
  C        11.9601854940        6.7129609817        4.4245154219
  H        12.5255640353        7.5902268836        4.0637518374
  H        12.5280313813        6.7812128217        6.4637969035
  H        11.1173540629        4.9505658199        7.1389064968
  H         9.8451659559        3.6333709467        5.4021168851
  H         9.7861698285        4.4546949927        3.0957154008
  C        13.4804545833        5.4121938223        2.0663196878
  C        14.4549793069        4.7136008895        1.3518782749
  C        14.4448877273        4.6714543799       -0.0927025593
  C        13.5131266536        5.3521111770       -0.8088524983
  H        13.4272487278        5.2822331857       -1.8725236554
  H        15.1594626581        3.9743717834       -0.5749662570
  H        15.1765079364        4.1486875599        1.9340609761
  H        13.4439491411        5.3269571035        3.1614237795
  C        11.3488852490        6.2675656672       -2.3071655604
  C        10.4520006846        5.1830952874       -2.5889594640
  C        10.2603280617        4.7671445266       -3.9083521885
  C        11.0452164977        5.2439114431       -4.9616427635
  C        11.9718947528        6.2962111320       -4.6372415863
  C        12.1060735561        6.7767956674       -3.3745516688
  H        12.7536640100        7.6169800599       -3.1226009211
  H        12.5585726192        6.7610761727       -5.4029173403
  H        10.9403856373        4.9109062839       -5.9733355206
  H         9.5925308550        3.8890612012       -4.1373738305
  H         9.9312343416        4.6432443956       -1.8117427116
