140

  C        13.2123639089        0.6176281249        1.0568781657
  C        14.3238829551        1.1836194412        1.7885109247
  C        15.5197540786        1.5597632756        1.1071225049
  C        16.6685515653        2.1228442743        1.7838664217
  C        17.6703458199        2.7741068651        1.0606694110
  C        14.2369219076        1.5924475548        3.1537074367
  C        13.3630275137        2.6563473451        3.5082434223
  C        13.3637050871        3.0800615510        4.8218086213
  C        14.2129699521        2.5088349087        5.7987302617
  C        15.0312900782        1.4747720005        5.4137480999
  C        14.9377580302        0.9338123750        4.1254257283
  H        16.7010101527        2.0542337725        2.8895126184
  H        18.4947850013        3.2245168148        1.6365083899
  H        12.7999269374        3.1471377459        2.7385073215
  H        12.8062755555        3.9955893399        5.0426015222
  H        14.2497660109        2.9671299953        6.7743442726
  H        15.7366560742        1.0038574351        6.0758710696
  H        15.5760246235        0.0599615996        3.9124614077
  C        13.1991773465        0.5922969273       -0.3930886348
  C        12.2570286226       -0.2165834548       -1.0421678399
  C        11.1379086291       -0.7326771705       -0.3641418880
  C        11.1369094055       -0.7118976446        1.0924996671
  C        12.2043182058       -0.1129326752        1.7821246638
  C        15.4062954394        1.6651551369       -0.3386216358
  C        14.2713290777        1.2619217288       -1.0103487843
  C        14.1434751556        1.6868213302       -2.4564727486
  C        13.3148089820        2.7637071391       -2.7297986706
  C        13.2300619455        3.2090485230       -4.0515145048
  C        14.0407566964        2.5464384850       -5.0448504710
  C        15.0097815309        1.5785986954       -4.6894800388
  C        15.0190150600        1.1220836421       -3.3667204544
  H        15.6937673207        0.3649175098       -2.9811103044
  H        15.6036803088        1.1630182235       -5.5174789443
  H        13.9232346411        2.9488316024       -6.0735614719
  H        12.6071805477        4.0243639653       -4.3692783115
  H        12.7210591024        3.1295096203       -1.8634772035
  C        16.4251143699        2.5514477504       -1.0288001364
  C        17.4913312850        3.0467098892       -0.2837138280
  H        18.2516013567        3.7126968340       -0.8517596636
  H        16.2967816333        2.6360990036       -2.0676352296
  C        12.2300440396       -0.4318183470        3.2673343701
  C        12.9431440899       -1.5746579992        3.7028948128
  C        12.9747770305       -2.0376193058        5.0092379834
  C        12.1323634481       -1.3171259304        5.9577771299
  C        11.4538048459       -0.1426507248        5.5852334353
  C        11.4497525030        0.2614616330        4.2601329746
  H        10.8459324418        1.1401768373        3.9903305508
  H        10.7748160789        0.4153184695        6.1892178154
  H        12.1418430894       -1.5493161932        7.0628377202
  H        13.5590997472       -2.8392181240        5.4954202757
  H        13.4449580814       -2.0695911660        2.9113579004
  C        10.0820576356       -1.3614918389        1.8053965999
  C         9.1100704819       -2.1326646108        1.1384281521
  C         9.1554793539       -2.2485443740       -0.3127425154
  C        10.1077420614       -1.5269651214       -0.9801918719
  H        10.0850307887       -1.5591845749       -2.1013647400
  H         8.5150147323       -2.9151849588       -0.8713584705
  H         8.3519057523       -2.6655995444        1.7130799052
  H        10.1224072434       -1.2922325824        2.8404205211
  C        12.3450024083       -0.6206856964       -2.4749097941
  C        13.1789114651       -1.6924683431       -2.8180577933
  C        13.2928805085       -2.2180755598       -4.0649254611
  C        12.4449482439       -1.6424785989       -5.0249092193
  C        11.4970991331       -0.6216955204       -4.7662396907
  C        11.4832716192       -0.0802695838       -3.4817046875
  H        10.8164898352        0.7384106874       -3.1157192275
  H        10.8195926476       -0.3809367757       -5.5821692462
  H        12.4878688025       -1.9431592279       -6.0622266354
  H        14.0150423368       -3.0000165161       -4.2873204825
  H        13.7085838507       -2.1462081929       -1.9782426118
  C         9.4217106697        7.6245158169        1.3815373108
  C         8.5007111392        8.4583086071        2.0674426133
  C         7.4240833681        9.0112589034        1.4126030226
  C         6.2398872185        9.5315408247        2.0469152115
  C         5.1735049138        9.9667953112        1.3003357829
  C         8.6370020428        8.8989273824        3.4781399937
  C         9.6133263119        9.7936559048        3.8186002248
  C         9.6850700163       10.4157195106        5.0950078244
  C         8.8300540727       10.0098188550        6.1542489875
  C         8.0081386744        8.9523670506        5.8312426582
  C         7.7928971798        8.4711074986        4.5185951340
  H         6.2194533971        9.6448774100        3.1312773652
  H         4.3039673739       10.4324791585        1.6880091970
  H        10.2046241763       10.3001478800        3.0613073305
  H        10.3512792900       11.2443532673        5.2973751319
  H         8.9012217878       10.5577437119        7.1562802971
  H         7.2603405585        8.5792635257        6.6023758002
  H         7.0786782346        7.6359174414        4.3856487326
  C         9.4541336022        7.5130671583       -0.0600070203
  C        10.4275794616        6.7151572038       -0.7559886130
  C        11.5267603762        6.2510897775       -0.0105238711
  C        11.6098311905        6.3841820799        1.3992296750
  C        10.5032748050        6.9493541801        2.0831955226
  C         7.4352786284        9.0501336119       -0.0781511506
  C         8.5045949398        8.4056251020       -0.8076468046
  C         8.5609851650        8.7603685524       -2.2646014766
  C         9.6526879725        9.6452712627       -2.5554003866
  C         9.8269269261       10.2038093581       -3.8411732231
  C         8.9662684088        9.7886069750       -4.8438607582
  C         7.9132157455        8.9205122823       -4.5730492692
  C         7.7867276259        8.3255475412       -3.2968078616
  H         7.0293494227        7.5366468937       -3.1735003210
  H         7.3737153636        8.5499142742       -5.4311850703
  H         9.0126250095       10.1989481656       -5.8476423173
  H        10.6573701760       10.8764222632       -4.0050665583
  H        10.4145919963        9.6902768181       -1.7795168571
  C         6.3437593595        9.6344531652       -0.7914134225
  C         5.2026925190        9.9954087445       -0.1280134566
  H         4.3576204939       10.4653728866       -0.5867619209
  H         6.3200558837        9.6652235157       -1.9198646536
  C        10.4492034675        6.7098157145        3.5167908924
  C         9.4692209647        5.7603049669        3.8663570996
  C         9.4513199757        5.2339318535        5.1505331137
  C        10.3880298461        5.5683341363        6.1497845614
  C        11.3144130031        6.5347358188        5.8467545071
  C        11.3100174627        7.1614473563        4.5669660602
  H        12.0547019151        7.9703409476        4.3566665289
  H        12.0751116364        7.0103677525        6.4397424915
  H        10.4099912583        5.1544397653        7.1459326153
  H         8.7532868676        4.4483396480        5.4184126991
  H         8.7318890584        5.3097606854        3.2083682472
  C        12.7513190829        6.0495701251        2.1710503055
  C        13.7941935106        5.5454283378        1.4181121504
  C        13.7321083015        5.3179342110       -0.0175888328
  C        12.5685679335        5.5955678054       -0.6771133773
  H        12.3479514616        5.1593481276       -1.6886119665
  H        14.5675406069        4.7757818238       -0.4240413086
  H        14.6945578734        5.1428220645        1.8695553701
  H        12.8732410157        6.0664222593        3.2961916234
  C        10.4118716348        6.4150817335       -2.1515180648
  C         9.7037482437        5.2887826825       -2.6957344154
  C         9.7021625374        5.0591390718       -4.0696284780
  C        10.5537409744        5.8664773893       -4.8067745048
  C        11.3978926152        6.8489489721       -4.3164962146
  C        11.3040317649        7.1457987304       -2.9089938671
  H        11.8202990579        7.9517417013       -2.4942972883
  H        12.0166169038        7.5575152500       -4.8885717583
  H        10.5128306128        5.7624819190       -5.8626818315
  H         9.1021365924        4.3258678845       -4.5819993748
  H         9.1027593939        4.6880269243       -2.0296839905
