140

  C        16.5271485548       -0.5220576449        2.6701417580
  C        17.5837398558        0.2084837618        3.3839030042
  C        18.6883006162        0.6631243357        2.7229122326
  C        19.7303016179        1.3167496844        3.4378995736
  C        20.8035332109        1.9406242901        2.7797530345
  C        17.6560799913        0.5358771619        4.8293238696
  C        16.8345010129        1.6050381197        5.2447104871
  C        16.8241668356        2.2345811556        6.4899321631
  C        17.6750690306        1.6873295834        7.5102934773
  C        18.4807438862        0.6162008895        7.1178537808
  C        18.4793950843        0.0669658249        5.8549382360
  H        19.6435250135        1.3219401014        4.5420821387
  H        21.5678055983        2.4783833566        3.3713763866
  H        16.2166552107        1.9558173016        4.4732300688
  H        16.0942957641        3.1201472297        6.6269912657
  H        17.7061696106        2.0594464868        8.5346384815
  H        19.1465103083        0.2555272919        7.9150892757
  H        19.0998521155       -0.7820870591        5.5729796280
  C        16.5114703637       -0.5570709401        1.1808086501
  C        15.5400735828       -1.2961817391        0.4411329958
  C        14.3942889684       -1.7880997173        1.1662614876
  C        14.4995167056       -1.9506674649        2.5911471094
  C        15.5420289128       -1.2720321362        3.3413983918
  C        18.6766847093        0.7293906766        1.2725366855
  C        17.5929993447        0.2074932816        0.5182410478
  C        17.5175394324        0.6002529574       -0.9026334853
  C        16.6636376313        1.6930784345       -1.2758683285
  C        16.7055557734        2.1176512903       -2.6593194033
  C        17.5781407249        1.4481141772       -3.5729079233
  C        18.4051044433        0.3927551696       -3.1501840819
  C        18.4349625087        0.0712624799       -1.8046488917
  H        19.1259328193       -0.7215246287       -1.6195800222
  H        19.1388219569       -0.0778182027       -3.8887472602
  H        17.6162050855        1.7643202536       -4.6456336573
  H        16.1013618014        3.0409966655       -2.8999745396
  H        15.9310940383        2.1651968743       -0.6432503694
  C        19.7897877961        1.3878672590        0.5960222872
  C        20.7828316797        1.9424717390        1.3538187518
  H        21.6005542575        2.3200485415        0.8185672722
  H        19.7838749999        1.4062079909       -0.4556846261
  C        15.5946829450       -1.4719269050        4.8285800695
  C        16.5491807142       -2.4218602041        5.2948408302
  C        16.6363628807       -2.7812775630        6.6401731704
  C        15.7587439338       -2.1751217793        7.5102299356
  C        14.8097391075       -1.1868852903        7.0364666719
  C        14.6448227438       -0.9216603239        5.7134317353
  H        14.0820438994       -0.1109909235        5.3625651132
  H        14.1723999578       -0.6186865220        7.7660890982
  H        15.8367630172       -2.3735622184        8.5979759218
  H        17.3965121642       -3.4148668522        7.1336570559
  H        17.2582256305       -2.8045625163        4.5142248289
  C        13.4922555595       -2.6664699050        3.2782015049
  C        12.4558000525       -3.2788756855        2.6704727827
  C        12.3245606185       -3.1453099056        1.2552736847
  C        13.2461958347       -2.3893940643        0.5445817015
  H        13.2466396818       -2.2999625698       -0.5225101392
  H        11.5244549386       -3.6882665541        0.7514502235
  H        11.7811446407       -3.9154898831        3.2110773685
  H        13.5154085567       -2.7131106867        4.3595077300
  C        15.5576906290       -1.5411005288       -1.0083298711
  C        16.4685759926       -2.5791820391       -1.4086362337
  C        16.4905219065       -2.9011741903       -2.7771479876
  C        15.5246424733       -2.4335114171       -3.6637305380
  C        14.6085774368       -1.4229533490       -3.2262767633
  C        14.6856276178       -0.9342863400       -1.9343835299
  H        14.0654751605       -0.0694808361       -1.5487983534
  H        13.8741164809       -0.9765758087       -3.9671659256
  H        15.4118897749       -2.8173203507       -4.6374234167
  H        17.2350160369       -3.5401764264       -3.2265035971
  H        17.1232042050       -3.0406058691       -0.7103593310
  C        13.0290968291        6.5875623388        2.7791889311
  C        12.0138319703        7.3380172573        3.4427893573
  C        10.8864960105        7.8098161810        2.7921541122
  C         9.7927707131        8.3935568327        3.4995364432
  C         8.7721755087        9.0423899332        2.8266588759
  C        12.0855091687        7.7368869583        4.8890884838
  C        12.9971578519        8.7284757962        5.3374555455
  C        13.1220396559        9.0348962488        6.7316436337
  C        12.2422764628        8.3935630942        7.6586920192
  C        11.3721428652        7.4142235356        7.2190093800
  C        11.3014194235        7.0516472068        5.8876466258
  H         9.8070701852        8.3204045531        4.5612149658
  H         7.9316344970        9.5605391067        3.3325427647
  H        13.6976898337        9.1422783371        4.6297492803
  H        13.8418378154        9.7018659965        7.0899694720
  H        12.3441837246        8.7280943133        8.6706085264
  H        10.7384596656        6.8863584051        7.9049302040
  H        10.7142160151        6.1517570394        5.5483251443
  C        13.0221383469        6.5521412995        1.2375040613
  C        14.0067399509        5.8927895381        0.5821187093
  C        15.1621859961        5.4047610538        1.3150330948
  C        15.2085109381        5.5144942497        2.7503929727
  C        14.0993687150        5.9810443760        3.5248904146
  C        10.8145416270        7.7317398449        1.3397732106
  C        11.9168444896        7.2180847498        0.5740634695
  C        11.9535693947        7.5966883534       -0.9249061543
  C        12.8374963076        8.6725552205       -1.3333205635
  C        12.7986051430        9.0923142380       -2.6677095392
  C        11.9637292844        8.4197467008       -3.6085679017
  C        11.0928643709        7.3092832350       -3.1925646713
  C        11.1702206262        6.9470716545       -1.8470720346
  H        10.5016742652        6.2314677184       -1.4485853665
  H        10.3591651331        6.7403164858       -3.8163692767
  H        11.9049499278        8.7064007570       -4.6627288122
  H        13.5078983543        9.8883378454       -3.0291920543
  H        13.4568733809        9.0928580449       -0.5543937159
  C         9.6929414851        8.4080443079        0.6472132570
  C         8.7228616670        9.0078838762        1.4102216288
  H         7.9020035627        9.5228616435        0.9110258775
  H         9.6335885586        8.3349399924       -0.4618484570
  C        14.0021632443        5.5396437404        4.9227042059
  C        13.0115100268        4.6526466137        5.3286484741
  C        12.9739281345        4.1994694017        6.6828110642
  C        13.8857086841        4.6293022432        7.6280031630
  C        14.8041917479        5.6166694800        7.2285999775
  C        14.9001877158        6.0549312942        5.8607054636
  H        15.5858137679        6.8501164289        5.5919166018
  H        15.5390692382        6.0222319655        7.9712161620
  H        13.8259363233        4.2814204167        8.6453458483
  H        12.2613006398        3.4144630124        6.9213633895
  H        12.2569075119        4.3654992569        4.5504121610
  C        16.3800010682        4.9859758707        3.4384761831
  C        17.3687409287        4.2688195853        2.7945122245
  C        17.2856400813        4.1180628514        1.3889917912
  C        16.2177325781        4.6761423475        0.6471918240
  H        16.2365569965        4.4236159637       -0.4191588810
  H        17.9079016806        3.4427702180        0.8238866130
  H        18.1416502157        3.8310774376        3.4244697992
  H        16.4018960918        5.0485384780        4.5431396938
  C        13.9424194494        5.4676758453       -0.8360486260
  C        12.9497357601        4.6422718739       -1.1673134081
  C        12.9339195613        3.9952135284       -2.4246377078
  C        13.8881838801        4.3678047056       -3.4053218831
  C        14.8101876540        5.3906409647       -3.1605683666
  C        14.8695547053        5.8796544101       -1.8422665115
  H        15.6910935183        6.5819514559       -1.6163608266
  H        15.4859688693        5.7876403402       -3.9751202481
  H        13.9066237992        3.9288291190       -4.4629966742
  H        12.2361456106        3.2286950415       -2.6109956017
  H        12.2874486511        4.3051264502       -0.4157215234
