140

  C         1.8345282462        0.7067855287       14.8893466812
  C         2.9051066389        1.2890116717       15.6128041743
  C         3.9515318862        1.8652835111       14.9344091277
  C         5.0447297340        2.4974874275       15.5399536542
  C         6.0894670642        3.0429002785       14.8342141009
  C         2.8069127402        1.6805870223       17.0811630550
  C         1.8359854485        2.6959195258       17.2625328514
  C         1.5978024500        3.3201052188       18.5090147362
  C         2.3910449556        2.8700100143       19.6397569803
  C         3.3963988213        1.9384007631       19.3644199333
  C         3.5359729571        1.2816200099       18.1689548953
  H         5.2177917216        2.4234327256       16.6500988174
  H         6.8432701052        3.6152994127       15.3948873430
  H         1.2052935308        2.9512242981       16.3988511367
  H         0.7969732646        4.0285762238       18.6831242355
  H         2.2918938260        3.1858759924       20.6683927973
  H         4.1043113237        1.7326784494       20.1464754832
  H         4.3563434850        0.5544284842       18.0179477965
  C         1.8698276153        0.6482384220       13.4204467926
  C         0.7797877540        0.0321065520       12.6536208717
  C        -0.2653946346       -0.6042270761       13.3266417846
  C        -0.2607628913       -0.7189336727       14.8006115782
  C         0.8548598041       -0.1258681939       15.5000741598
  C         3.9827225349        1.8486193191       13.4456973229
  C         2.8550519260        1.3630818460       12.7038220709
  C         2.8105124248        1.6793594471       11.2409039495
  C         2.0753187495        2.7236862718       10.7439882845
  C         2.1439288368        3.0940729132        9.4006676426
  C         2.9800718727        2.4011068638        8.5114353469
  C         3.7500113150        1.3000911967        9.0233418918
  C         3.6014643557        0.9355365609       10.3446964550
  H         4.1838012197        0.1359012142       10.8291108391
  H         4.3829755635        0.6407593957        8.3934475163
  H         3.0663003613        2.7211170390        7.4387618036
  H         1.5850442731        3.9903658266        9.0486816435
  H         1.4754702441        3.2940654983       11.4746328419
  C         5.0977152864        2.4036032810       12.7894774782
  C         6.1235642397        3.1176376192       13.4433353760
  H         6.8522780747        3.7001243818       12.8876519252
  H         5.1385329364        2.3308210320       11.7207211457
  C         0.9774496535       -0.5310514098       16.9206793738
  C         1.9025827311       -1.5091030211       17.3684232078
  C         2.0212498033       -2.0204551629       18.6437768816
  C         1.1893992393       -1.4624473406       19.6314395622
  C         0.2843434531       -0.4734236455       19.2197903378
  C         0.1749742591        0.0707078734       17.8984646103
  H        -0.5397953237        0.8812169634       17.7017581268
  H        -0.3949211577        0.0130142513       19.9254552809
  H         1.3031132571       -1.7161405543       20.6658864101
  H         2.7261832855       -2.7886316341       18.9355539214
  H         2.4193804040       -1.9952409936       16.5471077789
  C        -1.4854555686       -1.2835147222       15.4030166035
  C        -2.4842613263       -1.7603563799       14.6548241320
  C        -2.4054939913       -1.8647502165       13.2371023442
  C        -1.3880767034       -1.1746758830       12.5595407682
  H        -1.3780451872       -1.3391331376       11.4810260011
  H        -3.2591148815       -2.2539866968       12.6590085975
  H        -3.3067656002       -2.3524057372       15.0901431261
  H        -1.6165011409       -1.2114071197       16.4980318183
  C         0.9035015980       -0.2488905389       11.2053017159
  C         1.6337970903       -1.3293997717       10.6636330953
  C         1.8588517722       -1.6104493495        9.3055812519
  C         1.1522636033       -0.8568073187        8.3950912485
  C         0.1997510761        0.0480700457        8.9542646012
  C         0.0669496220        0.4173322988       10.2470612176
  H        -0.5861793187        1.2621241582       10.4378355889
  H        -0.4892185846        0.5162572567        8.1938309356
  H         1.2913923773       -1.0138316392        7.3486086248
  H         2.6078985062       -2.3650086671        8.9335280151
  H         2.1255525553       -1.9927224339       11.3524005668
  C        -1.6157435844        7.9513748094       14.7169405526
  C        -2.6076046337        8.7041175444       15.4408709332
  C        -3.7938405056        9.1541362895       14.8041655842
  C        -4.8344947901        9.9269461231       15.4065171213
  C        -5.8779760319       10.4640986728       14.6722455767
  C        -2.3430756213        9.0606227687       16.8885068804
  C        -1.3689886369       10.0386472345       17.2573826508
  C        -1.3728306514       10.5015316423       18.5847416923
  C        -2.3325820842       10.1375092537       19.5582754021
  C        -3.2053619872        9.0394716247       19.2329489961
  C        -3.1964920000        8.6064462561       17.9253870697
  H        -4.9070021741        9.9536298741       16.4909088015
  H        -6.7255315182       10.8885662282       15.2573201526
  H        -0.6038037071       10.3978391598       16.5938752609
  H        -0.6572915481       11.2003776586       18.9361488739
  H        -2.2749142707       10.5808412140       20.5200098067
  H        -3.8436246071        8.7499482487       20.0182653394
  H        -3.7507018900        7.7197718843       17.6290815807
  C        -1.5811195362        8.0113354067       13.2300158095
  C        -0.5876205772        7.3306568778       12.5481905162
  C         0.4626957627        6.6937166358       13.2214775095
  C         0.3928580970        6.5552019436       14.6662660111
  C        -0.6976232405        7.1166065930       15.3812975430
  C        -3.8129837075        9.1210680518       13.3086245236
  C        -2.6479486259        8.6636144511       12.5629037286
  C        -2.5371790765        8.9549226655       11.0639901374
  C        -1.6505866609        9.9971702736       10.7362370955
  C        -1.5252186547       10.3943548818        9.4235844589
  C        -2.3059086461        9.8425271427        8.4096891585
  C        -3.2592191157        8.8648779500        8.7034471477
  C        -3.3509041936        8.4228591449       10.0170402789
  H        -4.0443310947        7.6200800081       10.2924411848
  H        -4.0119534636        8.4094723056        7.9803711126
  H        -2.2926982431       10.3240946220        7.4423261537
  H        -0.8007100292       11.1565140649        9.1815074923
  H        -1.0556973008       10.4802994594       11.5591923103
  C        -4.8866989490        9.7637994804       12.6480995662
  C        -5.8997065287       10.4857575385       13.2567919811
  H        -6.5708070518       11.0416385573       12.6138609242
  H        -4.7405684982        9.8727793060       11.5959118840
  C        -0.9527150658        6.6277360258       16.7560323468
  C        -2.0639135667        5.7929699770       17.0084019181
  C        -2.3071131206        5.2725370111       18.3027707780
  C        -1.4926589084        5.6979205294       19.3519240183
  C        -0.4420956480        6.5380214628       19.1235991995
  C        -0.1313419827        6.9132555117       17.8315745441
  H         0.8640787288        7.4326157864       17.6293841710
  H         0.1672536616        6.8110332465       19.9618333847
  H        -1.7002136599        5.4399836634       20.4107993250
  H        -3.1540273122        4.5887117286       18.3367541839
  H        -2.6658056691        5.5338041010       16.1558352907
  C         1.3207028803        5.6515287830       15.2854449408
  C         2.3162443794        5.1015232832       14.6062259190
  C         2.4920661973        5.3175207128       13.1812656713
  C         1.5736575271        6.0706635407       12.5493247388
  H         1.5946643889        5.9963164303       11.4931577287
  H         3.3281213395        4.8476763916       12.7049135647
  H         2.9577690553        4.3585473641       15.1164922272
  H         1.1430093009        5.2955882183       16.2848318263
  C        -0.6075624032        7.0780955035       11.0746004917
  C        -1.4769267386        6.0412567706       10.6547030072
  C        -1.3125476944        5.5265601471        9.3826080857
  C        -0.3985781600        5.9952578449        8.4415549629
  C         0.4653909054        7.0772178384        8.8712053225
  C         0.3339632658        7.5724930086       10.1440072873
  H         1.0210311482        8.3536634488       10.6223800238
  H         1.2205427977        7.5203205058        8.2095559841
  H        -0.4154361671        5.6927819238        7.4183022657
  H        -2.0160160133        4.7869047548        9.0482973810
  H        -2.1855507587        5.6485225958       11.3912078465
