140

  C        14.9393028503       -0.2510975583        0.7827456750
  C        15.8992714008        0.5662076009        1.4350465249
  C        16.9661520398        1.0203528771        0.6175623242
  C        18.1219553837        1.6374030322        1.1095598500
  C        19.1724409484        2.0719846611        0.3484716269
  C        15.8806422954        0.8464066566        2.9383618322
  C        14.9382919275        1.7241299720        3.4619118875
  C        14.9532955056        2.0196540347        4.8799568856
  C        15.8864199921        1.3491939982        5.6986463015
  C        16.8585574729        0.4598898767        5.1167078099
  C        16.7919600669        0.1861905946        3.7642250530
  H        18.2567761273        1.7248674136        2.1733578372
  H        20.0188530519        2.5576573207        0.7765223979
  H        14.2211498670        2.1411872357        2.8625095162
  H        14.0899657265        2.6613084513        5.2145302861
  H        15.9094304406        1.5350765010        6.7620233841
  H        17.6390589554       -0.0107718602        5.7142203893
  H        17.5759553866       -0.4670366652        3.3260601522
  C        14.8225953624       -0.1871271304       -0.7420623907
  C        13.7221088293       -0.8890256921       -1.3009958852
  C        12.6925020492       -1.4860304283       -0.5559616262
  C        12.9110764091       -1.6181681006        0.8737585843
  C        14.0223998797       -1.0767219329        1.4791941070
  C        16.9423080334        0.9334086553       -0.8558746615
  C        15.8303904865        0.4202959126       -1.5376000338
  C        15.6859128307        0.6999709373       -2.9996706668
  C        14.8210241378        1.8057639892       -3.4100649625
  C        14.8351191649        2.2235131890       -4.7639857990
  C        15.7329727466        1.5815652056       -5.6531171446
  C        16.6425413728        0.6657074768       -5.2444707112
  C        16.5971501877        0.1740159109       -3.9151452427
  H        17.3176555296       -0.6164880444       -3.6451770062
  H        17.4387232491        0.2847551297       -5.9005315406
  H        15.5769811165        1.8664229452       -6.6903806394
  H        14.2526630624        3.0948270533       -5.1297698728
  H        14.0658333246        2.1352642129       -2.6956650182
  C        17.9056559418        1.6367402172       -1.6484376319
  C        19.0196848270        2.1089479627       -1.0428020824
  H        19.7794383080        2.6706262361       -1.6370833410
  H        17.7123829352        1.6722679667       -2.6557130532
  C        14.1697000989       -1.5379564231        2.9283246215
  C        15.1500082133       -2.5264178812        3.2685010514
  C        15.2925535769       -3.0521328084        4.6393953084
  C        14.4290554545       -2.5645678322        5.5741306668
  C        13.4250810135       -1.6832781434        5.2585007706
  C        13.3203761757       -1.1430095227        3.9350350971
  H        12.4117860244       -0.5048913976        3.7503844424
  H        12.6410186278       -1.4197931537        5.9477736559
  H        14.4750493143       -2.9350454169        6.6627234579
  H        16.1091913031       -3.6668615939        4.8743430475
  H        15.9328618707       -2.8894395043        2.5363484080
  C        11.9262979107       -2.4347979537        1.6044365872
  C        10.8455526516       -3.0272602785        0.9632204176
  C        10.6308485639       -2.8444641208       -0.4213485328
  C        11.5509743263       -2.0870934419       -1.1676145088
  H        11.4864639820       -2.0433517810       -2.2844699070
  H         9.7116594725       -3.2907362391       -0.7354606945
  H        10.1901850739       -3.5962601923        1.5423096402
  H        12.0589412883       -2.7209925691        2.6567243906
  C        13.7497737125       -1.2472272446       -2.7115979131
  C        14.5304426932       -2.3713186395       -3.0646898835
  C        14.6330423916       -2.9035752010       -4.3300989487
  C        13.7471223963       -2.3342852499       -5.3047349971
  C        12.8600212615       -1.2855104737       -4.9604804240
  C        12.8615430830       -0.7616150741       -3.6825454050
  H        12.2858244186        0.1334137661       -3.4724163802
  H        12.1456966231       -0.9546451279       -5.7067952793
  H        13.7862971398       -2.7519765779       -6.3068698777
  H        15.1798650994       -3.7796166281       -4.6227465959
  H        15.1099550028       -2.9171557710       -2.3098427616
  C        11.0745620264        6.8392243406        0.7184313971
  C        10.0987197748        7.6015856599        1.4684068419
  C         9.0202829907        8.2374350237        0.7953287892
  C         7.9351131381        8.9776568696        1.5392710112
  C         6.9564705887        9.6597397876        0.8688637449
  C        10.2297933377        7.8173020851        2.9315928661
  C        11.1135894801        8.8195666318        3.3831840912
  C        11.1483267597        9.2914565228        4.6825015161
  C        10.3689764738        8.5964597365        5.6248871387
  C         9.5750682500        7.5119743988        5.2348272406
  C         9.3849115443        7.1866123219        3.8690482582
  H         8.0739355336        9.2158181692        2.5891368773
  H         6.2242755319       10.2710624050        1.3903244530
  H        11.6923706779        9.3738394007        2.6803795015
  H        11.6634363149       10.2285495924        4.9198373921
  H        10.4031967768        8.9404821708        6.6991982937
  H         8.8520078088        7.1292262263        5.9268676197
  H         8.7449693093        6.4012089297        3.5980376513
  C        11.0953120995        6.8715520811       -0.7559550572
  C        12.0364441032        6.1644504239       -1.5028751684
  C        13.1110319384        5.5157471642       -0.8675005765
  C        13.1889601194        5.5036076943        0.5731654028
  C        12.0533211968        6.0194932536        1.3548731754
  C         9.0063235827        8.1846224526       -0.6278199937
  C        10.0363934920        7.6313808756       -1.4039777954
  C         9.9829204252        7.7725981416       -2.9076997068
  C        10.8642895468        8.7025038502       -3.4550640948
  C        10.8888698831        9.0195827285       -4.8493334639
  C         9.9014768799        8.4473643914       -5.6651889887
  C         8.9179644230        7.6839129695       -5.0829362049
  C         8.9628806070        7.2417635923       -3.7685623091
  H         8.2075578176        6.6425816322       -3.2630201778
  H         8.1871749509        7.2235232634       -5.8053957207
  H         9.9974998695        8.6400304582       -6.7172009684
  H        11.6380157659        9.7628382206       -5.3371664472
  H        11.5666952889        9.2883915332       -2.8355247853
  C         7.8801934097        8.8144515151       -1.2460138456
  C         6.9238494592        9.4905710882       -0.5651619124
  H         5.9375042628        9.8515836126       -1.0229311280
  H         7.7580025347        8.9629433541       -2.3482563717
  C        11.9445250809        5.5121050707        2.8209492276
  C        11.2210045402        4.3117482483        3.0547423324
  C        11.2332895450        3.7756439435        4.3899728487
  C        11.9508645104        4.4260115955        5.3940381864
  C        12.7490147235        5.5765663156        5.1220060917
  C        12.6814994479        6.0838706226        3.8013790676
  H        13.3814285076        6.8508482644        3.5468533799
  H        13.2795993582        6.0543313472        5.9195507859
  H        11.9147582727        3.9955897021        6.4008778365
  H        10.8042210497        2.8293281223        4.6919753130
  H        10.7707901254        3.8335306383        2.2110419652
  C        14.2756564209        4.8435068709        1.2017963520
  C        15.3102062385        4.3454828810        0.4590198487
  C        15.3320928137        4.3906976012       -1.0047398382
  C        14.2208558032        4.9895884208       -1.6420867685
  H        14.3331721231        5.0114874744       -2.7530116762
  H        16.1696697775        3.9951052030       -1.6110545035
  H        16.1658635772        3.9403401343        1.0060177184
  H        14.2756180419        4.7907396263        2.2815079989
  C        11.8533826259        5.8629608972       -3.0505735869
  C        10.9312859926        4.8871219307       -3.5895183900
  C        10.9606861608        4.4880451141       -4.9284843799
  C        11.9774159231        5.0002546451       -5.7786085612
  C        12.7922579704        5.9729395312       -5.3406430946
  C        12.7947616564        6.4038722492       -3.9991087004
  H        13.5003536479        7.1994464688       -3.7565323491
  H        13.6171007377        6.1907957958       -6.0440660971
  H        11.9909892072        4.5030904454       -6.7808759919
  H        10.3137313042        3.7461131472       -5.2934354775
  H        10.1343275180        4.3703882180       -2.9906126101
