140

  C        15.6213796331       -1.1352321651        0.4284548682
  C        16.6896285610       -0.4677227503        1.1139320911
  C        17.8019323485        0.0630150162        0.5015846835
  C        18.9940064945        0.6699772064        1.1082096882
  C        20.0691903392        1.1135695300        0.3692119979
  C        16.5135197824       -0.1592327228        2.5609125797
  C        15.7284787988        0.8792731150        3.0388565680
  C        15.7446310253        1.2275926990        4.4124622864
  C        16.6153024105        0.6279630458        5.3386416223
  C        17.4918361796       -0.2920160678        4.8498775874
  C        17.4458045023       -0.7333932041        3.4986561964
  H        18.9412295569        0.8127754853        2.1975103527
  H        20.9498247506        1.5100773561        0.8131485000
  H        15.0029151258        1.3893944028        2.4263057543
  H        15.0679647697        2.0076781581        4.8157992146
  H        16.5590781801        0.8561873862        6.3935435195
  H        18.2234396597       -0.7648542518        5.5203340748
  H        18.0435849656       -1.5992581682        3.1555012603
  C        15.5934136337       -1.1885342605       -1.0669520291
  C        14.6845275706       -2.0204636596       -1.7316837498
  C        13.4466990178       -2.4988691724       -1.0927515579
  C        13.3889196691       -2.3993624399        0.3492985930
  C        14.5489752388       -1.8831829348        1.0887348160
  C        17.7744350595        0.0649770399       -0.9855929060
  C        16.7018301664       -0.4696412788       -1.7034819067
  C        16.7025870758       -0.1199375214       -3.1600303211
  C        15.9250644968        0.9293967455       -3.7373261170
  C        15.8547118163        1.0949264845       -5.1145509496
  C        16.6881888741        0.3182215654       -5.9865555973
  C        17.5192190026       -0.6354623731       -5.4230022312
  C        17.4841697793       -0.8345298044       -4.0269588822
  H        18.0802182350       -1.6873646054       -3.6142466422
  H        18.2391795022       -1.1579464132       -6.0220888199
  H        16.6576262838        0.5948235570       -7.0288895029
  H        15.1261846868        1.7456826833       -5.5651277973
  H        15.2347009341        1.4796667088       -3.0822841321
  C        18.8853408849        0.5710021924       -1.6822981189
  C        19.9968932129        1.0279146790       -1.0698898023
  H        20.8673636670        1.3290034226       -1.6471792279
  H        18.8880209718        0.5377991455       -2.7414595692
  C        14.6201394643       -2.2114742504        2.5379670727
  C        15.2931996349       -3.3109598080        3.0494733138
  C        15.2347507010       -3.7057304980        4.4689197903
  C        14.6327129561       -2.8255470873        5.3664061982
  C        13.9805699037       -1.6541378716        4.7867753000
  C        13.9176676222       -1.4365418498        3.4039603005
  H        13.3423115672       -0.6589063592        3.0348685502
  H        13.6190609128       -0.8969087356        5.4214784935
  H        14.6226183978       -3.0398041700        6.4836405646
  H        15.7226341940       -4.5822936409        4.7366212577
  H        15.7515751984       -4.0331903805        2.4235187163
  C        12.2709167281       -3.0030822572        1.0548316176
  C        11.3822037026       -3.7449909902        0.3369936295
  C        11.4544618524       -3.9078850207       -1.0939871005
  C        12.4091101054       -3.2275013741       -1.7920580001
  H        12.4184515730       -3.2754416077       -2.8964046332
  H        10.8071392626       -4.6305176405       -1.5963636965
  H        10.7202491603       -4.2538680610        0.9375926429
  H        12.1948441495       -3.0369609312        2.1765102230
  C        14.7292130572       -2.3434018324       -3.2142301842
  C        15.5418785016       -3.2826920106       -3.7148305672
  C        15.4645515220       -3.7510536393       -5.0004994422
  C        14.4646619872       -3.3603354740       -5.7786013162
  C        13.6838249102       -2.2600827671       -5.4158386458
  C        13.7632956327       -1.7766594217       -4.1158878121
  H        13.1245081875       -0.9598643449       -3.7335358579
  H        12.9150529322       -1.8728520740       -6.0921706338
  H        14.3871181744       -3.6621528917       -6.7808754760
  H        16.1356981376       -4.5386221645       -5.1951813133
  H        16.2981913652       -3.6930049516       -3.0437705951
  C        11.9121819167        5.8703319202        0.5377000294
  C        10.9696196359        6.7113120189        1.1877483902
  C         9.8563434714        7.1761745336        0.4766466599
  C         8.9164460832        8.0004641709        1.0692019467
  C         7.8348875742        8.5232898944        0.3813801887
  C        11.1315017447        7.1963471522        2.5728130021
  C        12.0606870921        8.1755194979        2.9146890501
  C        12.0875907562        8.8132529065        4.1248894591
  C        11.2071532962        8.3238475463        5.1265235373
  C        10.4178179279        7.2162753108        4.9502678413
  C        10.3517101383        6.6547740577        3.6422654026
  H         8.8809003728        8.0940917075        2.1368555609
  H         6.9757592762        8.9566101137        0.9288014092
  H        12.6826197815        8.6001661295        2.1999103599
  H        12.6980417642        9.7377737749        4.3228720215
  H        11.2071020033        8.8767958313        5.9961771969
  H         9.7209568397        6.7525998101        5.6515010745
  H         9.5389924813        5.9695736680        3.4177659225
  C        11.9408430150        5.7825793535       -0.9122367526
  C        13.0374790953        5.1029219933       -1.5817281787
  C        14.1399356804        4.6316072744       -0.8865180649
  C        14.0436958514        4.6327887358        0.5532755763
  C        12.9522976845        5.0747566294        1.2550327982
  C         9.7981375433        7.0476979801       -0.9494302473
  C        10.9091567853        6.4692684235       -1.6454685664
  C        11.0169773153        6.7217763615       -3.1504849417
  C        11.9119720590        7.6796587320       -3.5682239536
  C        11.7922493904        8.2003010962       -4.9217542759
  C        10.9004354752        7.6168371269       -5.8351123889
  C        10.0070631989        6.5416705788       -5.4313605575
  C        10.1589449038        6.1109509931       -4.0757238536
  H         9.4346286778        5.3491684000       -3.7048125383
  H         9.2603043824        5.9570105837       -6.0886587550
  H        10.7239997040        8.2099489802       -6.7093548367
  H        12.3873070677        9.0914949165       -5.1758492022
  H        12.4849368026        8.3123351519       -2.8194169582
  C         8.6522782644        7.5762004567       -1.6411537653
  C         7.6892968065        8.3376134278       -1.0267986241
  H         6.7515082042        8.6037232248       -1.4704802002
  H         8.6446821997        7.4930266502       -2.7004438352
  C        12.7593479511        4.6896972527        2.7498647442
  C        11.7131515941        3.8409604209        3.1109597197
  C        11.6821015269        3.4264320290        4.4741842416
  C        12.4820882018        4.0982405197        5.4685688915
  C        13.3759406082        5.0735170432        5.0702756802
  C        13.5890750461        5.2935627317        3.7131795462
  H        14.2855296014        6.1429012523        3.4086613780
  H        13.8093581385        5.6357583045        5.8424140556
  H        12.4355017572        3.9270233375        6.5976321837
  H        10.9358528759        2.5820677790        4.8124753344
  H        11.1547836936        3.2936705887        2.3525531235
  C        15.1393285616        4.0275234459        1.2775279420
  C        16.2315884151        3.4190979975        0.6794568433
  C        16.2712167518        3.3478089351       -0.7538498258
  C        15.2801859294        3.9545939861       -1.4899838001
  H        15.2808153978        3.7776161616       -2.5513061153
  H        16.9822034759        2.7864050488       -1.3277486117
  H        16.9776188673        2.9243570699        1.2439417946
  H        15.0362038405        3.8845432519        2.4310934334
  C        13.0669577717        4.7635537294       -3.0104904091
  C        12.1081970266        3.8384448372       -3.5738184432
  C        12.2151290254        3.4893595020       -4.9003288269
  C        13.2272449113        4.0277848853       -5.7811516091
  C        14.0496201401        5.0538762430       -5.2495645649
  C        13.9642284578        5.3737338163       -3.8948147123
  H        14.5444969326        6.1765523037       -3.5611001301
  H        14.7230743437        5.4867118985       -5.9553939229
  H        13.2505342724        3.8147775448       -6.8588713961
  H        11.5723607788        2.7655824534       -5.3912038539
  H        11.3249542767        3.4795981747       -3.0426546423
