140

  C        15.2720349926       -0.8386620056        0.5690994341
  C        16.3022234471       -0.1422335514        1.2874655537
  C        17.3474893811        0.5210582031        0.7024064490
  C        18.4360324369        1.0617290660        1.4966099878
  C        19.4225148244        1.7969525917        0.8845791127
  C        16.0911965056        0.1050696406        2.7816940334
  C        15.4685505132        1.3590858044        3.1081314108
  C        15.4525566365        1.8683731874        4.4069780079
  C        16.1549349948        1.1854716426        5.3883449283
  C        16.9005616798        0.0726372049        5.0436534126
  C        16.7516970313       -0.5549316456        3.7892335246
  H        18.5092911449        0.8356287685        2.5417024004
  H        20.2291258441        2.2205243021        1.4964442003
  H        14.9248199201        1.9457274920        2.3466679320
  H        15.0125091529        2.8987193697        4.5553543276
  H        16.3475248240        1.6131974045        6.3503065883
  H        17.4806035062       -0.4378263425        5.7588288781
  H        17.1400792228       -1.5232753573        3.5320471767
  C        15.2763585217       -0.7282469420       -0.8951492740
  C        14.3344862409       -1.5304979876       -1.5936333953
  C        13.2447385633       -2.1325384465       -0.9062248256
  C        13.1616919890       -2.1343557990        0.5414550406
  C        14.2297197135       -1.5003684771        1.2413348317
  C        17.3017037858        0.7207259978       -0.7329316681
  C        16.2427636152        0.1565499187       -1.4805741526
  C        16.1454093052        0.6127943940       -2.9183176158
  C        15.2640628564        1.6488887847       -3.3752567420
  C        15.1769681598        1.9476292156       -4.7421882260
  C        16.1345541170        1.4043322968       -5.6990125968
  C        17.0781263949        0.5706596754       -5.1593411189
  C        17.0457718169        0.1355697777       -3.8216970514
  H        17.8058048028       -0.6422102175       -3.5958371030
  H        17.8564576836        0.0937009017       -5.7991153547
  H        16.0477659466        1.7192144438       -6.7583532979
  H        14.3825586337        2.6156099554       -5.1247092513
  H        14.5562564270        2.0485682698       -2.6648600700
  C        18.4061068504        1.4361352669       -1.2898868979
  C        19.4112757500        1.9650161753       -0.5278677781
  H        20.1703708163        2.4851185293       -1.0224871982
  H        18.3776365053        1.6892501325       -2.3738585204
  C        14.2014292899       -1.9087885156        2.6184754655
  C        15.0149650915       -2.9952192027        3.0574347952
  C        15.0767221083       -3.4517203240        4.3635191999
  C        14.2529701344       -2.9729185084        5.3392842387
  C        13.3399704360       -1.9539017127        4.9282436670
  C        13.4091539300       -1.3176412586        3.6491085536
  H        12.7822376324       -0.4594285957        3.4978268748
  H        12.8118922462       -1.4748016541        5.7487703527
  H        14.3646661729       -3.2202768374        6.3394549328
  H        15.7280871546       -4.2888774709        4.6413833890
  H        15.5801253462       -3.4296336784        2.2720336610
  C        11.9910257686       -2.5731869642        1.1805864553
  C        10.9128273754       -3.0845804756        0.5019381609
  C        10.9359226672       -3.0438022334       -0.9240385967
  C        12.0718223682       -2.6851640619       -1.5810847835
  H        12.1039375574       -2.7792743801       -2.6244479170
  H        10.0770948422       -3.3013321153       -1.4358381397
  H        10.0982054600       -3.3089989378        1.1383249412
  H        11.8353048683       -2.5522436952        2.2510767671
  C        14.4634224040       -1.8518190805       -3.0175949104
  C        15.3968744996       -2.7638458529       -3.5502464211
  C        15.2313510754       -3.2237079337       -4.8819838950
  C        14.2784558040       -2.6641056765       -5.7285364813
  C        13.4776578620       -1.6477312540       -5.2813835566
  C        13.5739776739       -1.3079340432       -3.9237364123
  H        12.7415886694       -0.6884285289       -3.6470755934
  H        12.8788650001       -0.9512270063       -5.8622062621
  H        14.1464275793       -2.9741105380       -6.7828387608
  H        15.8190161325       -4.1316229284       -5.2027620553
  H        16.2113249968       -3.1607297800       -2.8649336784
  C        11.3988612151        6.6566376897        0.7753465412
  C        10.3285069401        7.3419804479        1.3761916396
  C         9.3476263219        7.9464958625        0.5916548767
  C         8.1636569684        8.4914001180        1.1785059501
  C         7.2752308634        9.3057654606        0.3943310720
  C        10.3081144299        7.7342540066        2.8259638708
  C        11.0235547071        8.9269778114        3.2161019942
  C        10.9653051678        9.3767098763        4.4917640070
  C        10.2096915645        8.7109120388        5.4371150640
  C         9.4433304646        7.5695834075        5.0857536985
  C         9.5007504702        7.1075992704        3.7514141431
  H         8.0270492476        8.2328052980        2.2451124491
  H         6.3894498006        9.7270793205        0.8942850531
  H        11.7225236487        9.5327203680        2.5144503513
  H        11.5602544503       10.2685755561        4.7435304448
  H        10.2370727564        9.0589177811        6.5033164854
  H         8.9108715380        7.0524957384        5.8087793649
  H         8.9991188487        6.2475961195        3.4201744405
  C        11.5761038652        6.6460840971       -0.7268532116
  C        12.6250859076        5.9008824283       -1.3337041233
  C        13.6156361329        5.3400503724       -0.5520662638
  C        13.6153542020        5.4599015204        0.8836154037
  C        12.4277592360        5.9875906014        1.5450433705
  C         9.6299106678        8.0981013590       -0.8582377361
  C        10.6879527135        7.4968968104       -1.4863477848
  C        10.7726439473        7.7816345388       -2.9916369931
  C        11.5554977504        8.8209034800       -3.4971201402
  C        11.2767804242        9.3404113749       -4.7479725046
  C        10.2933316487        8.7028836318       -5.5795838053
  C         9.6077568251        7.6025630208       -5.1236510485
  C         9.8143431517        7.1833920339       -3.8292341486
  H         9.2142842020        6.3764015885       -3.3801409459
  H         8.7512900201        7.1642364729       -5.6343690221
  H        10.2108424686        9.1044689409       -6.5790703754
  H        11.8084329634       10.0587998822       -5.2504314110
  H        12.3857742545        9.2210658881       -2.8922746483
  C         8.7396490549        8.9840511030       -1.5258976612
  C         7.7019716432        9.6131518489       -0.8492022385
  H         7.0776390992       10.2073514265       -1.5340352284
  H         9.0330129373        9.3396982856       -2.5570620014
  C        12.2599466784        5.5924392106        2.9638737549
  C        11.4906502984        4.4759077881        3.2739706203
  C        11.4230040399        3.9241540544        4.5449291849
  C        11.9980331605        4.5922631247        5.6119246542
  C        12.7571564598        5.7274235389        5.3609125699
  C        12.8579409648        6.2504980219        4.0280139320
  H        13.4644657192        7.1097387513        3.8724477092
  H        13.1999968447        6.2730704245        6.1849334634
  H        11.7678828514        4.3433797912        6.6318441746
  H        10.6688913717        3.1180342395        4.7185757718
  H        10.9083830292        3.9501507041        2.4936227088
  C        14.7125941974        4.8960811141        1.5859238821
  C        15.8177574634        4.4438839212        0.9204596623
  C        15.7990018787        4.2139136044       -0.4709121763
  C        14.7276187714        4.7085547877       -1.1937709241
  H        14.7486093341        4.7275872244       -2.2654487618
  H        16.6958177206        3.8201848616       -0.9915094890
  H        16.7966395180        4.1926805668        1.4090964446
  H        14.5193205420        4.9635712258        2.6297906428
  C        12.6872689666        5.7030603512       -2.8791071726
  C        11.7672555687        4.8277864093       -3.4720516331
  C        11.8094200823        4.4681876999       -4.8362335655
  C        12.8757143136        4.9591654709       -5.6219198372
  C        13.7876798210        5.8564473350       -5.0433788189
  C        13.5996699914        6.2884226572       -3.7548161408
  H        14.1984718690        7.0243067999       -3.1992195293
  H        14.5195047751        6.2784021782       -5.7622642100
  H        12.9233475215        4.8415287890       -6.7301295487
  H        11.1049185216        3.8639379671       -5.3601400014
  H        11.0099147454        4.4001073975       -2.8630612079
