140

  C         2.8852241825       -0.0751915920       14.9249364071
  C         3.9145709280        0.6912476708       15.5709822144
  C         5.0182093613        1.2181671080       14.7930423631
  C         6.0815822764        1.8711402627       15.4203541179
  C         7.0646858007        2.5049627891       14.7519254423
  C         3.7054304676        1.1460871646       16.9586221878
  C         2.7185681665        2.0974980553       17.1283394966
  C         2.5221370587        2.7395370397       18.3767861015
  C         3.4498881113        2.5428913068       19.3819138914
  C         4.3588441662        1.5318855534       19.1980026754
  C         4.5607653508        0.8122800811       18.0317212259
  H         6.1226615025        1.7397245421       16.5153116237
  H         7.8604853264        2.9718272084       15.4189440720
  H         2.0775859592        2.2496979906       16.2583900494
  H         1.5787079753        3.3056504574       18.5999349812
  H         3.4629694619        3.0562054777       20.3581488290
  H         4.9229822912        1.3293717233       20.1114358970
  H         5.2477769572       -0.0524395138       17.9896825206
  C         2.9783197132       -0.0427560989       13.3688466869
  C         1.9414407022       -0.7609091500       12.6838340514
  C         0.8343367418       -1.2404048686       13.3942192872
  C         0.7147718498       -1.1846582881       14.8504783409
  C         1.8126344915       -0.6954574977       15.5934128803
  C         5.0776266835        1.2730158103       13.3363967756
  C         3.9869741996        0.5764897601       12.6526580257
  C         3.7658169426        0.8840947239       11.2138246563
  C         2.9012791421        1.9819691494       10.9099146313
  C         2.8074796933        2.4335574089        9.5839484707
  C         3.6455633463        1.9500552892        8.5858155559
  C         4.5419378842        0.9585155821        8.8560451719
  C         4.5434927353        0.3843987393       10.1825475397
  H         5.1923790163       -0.4536431742       10.3846520748
  H         5.2212916174        0.6111194261        8.0998747203
  H         3.5787414255        2.5349296964        7.6461154133
  H         2.0513607268        3.1896565735        9.3701594104
  H         2.3575685823        2.4442807010       11.7322589695
  C         6.0783411884        2.0500780787       12.6958450405
  C         7.0637001609        2.7207226295       13.4155118642
  H         7.7685713316        3.3929806130       12.9512225696
  H         5.8723216539        2.1782553674       11.6428148104
  C         1.8987419274       -0.9767721811       17.1026256598
  C         2.8175639350       -1.9741284054       17.5415877771
  C         3.0212221907       -2.3056781582       18.9367652690
  C         2.2831103065       -1.6778894352       19.9136867678
  C         1.2962975153       -0.7360519769       19.5102409592
  C         1.0948628549       -0.3979610187       18.1687394794
  H         0.3243903678        0.3146326647       17.9474716801
  H         0.6421662745       -0.2713323646       20.2910840486
  H         2.3854083150       -1.9005230847       21.0180034366
  H         3.7454941424       -3.1747050385       19.1231728861
  H         3.4245065932       -2.5526002311       16.8909467106
  C        -0.4607082466       -1.7485225629       15.5096763425
  C        -1.3757295956       -2.3590574810       14.7040600263
  C        -1.2232688997       -2.4810848144       13.2586057838
  C        -0.1979420989       -1.8631539725       12.6556549072
  H        -0.0627489062       -2.0196611886       11.6298773849
  H        -2.1042934750       -2.8996388267       12.6889659844
  H        -2.2605585363       -2.7820663569       15.1652638339
  H        -0.4415881859       -1.8109052677       16.5907323758
  C         2.0877013470       -1.1122607239       11.2382630427
  C         2.8267001750       -2.2601396441       10.8385837723
  C         3.0490226807       -2.6812515459        9.5328870914
  C         2.2328156149       -2.0818001587        8.5513868142
  C         1.3010259981       -1.1081678462        8.9130764765
  C         1.2138307039       -0.5760885022       10.2016600679
  H         0.5617717213        0.2563034618       10.3411754365
  H         0.6852843909       -0.7928535978        8.0914972670
  H         2.4028976754       -2.4193892282        7.5386903535
  H         3.7838025515       -3.4346065014        9.2740291312
  H         3.3655435573       -2.6855852815       11.6347385225
  C        -0.6098849213        7.3728282443       14.5088374068
  C        -1.6148733203        8.1549732926       15.1977274090
  C        -2.7054236325        8.6180719121       14.4092034646
  C        -3.8447207123        9.2348205146       15.0512845036
  C        -4.8825730760        9.7478026791       14.3714018545
  C        -1.6340465505        8.4454562204       16.6753547936
  C        -0.7563435881        9.4152259393       17.1702355320
  C        -0.9042760891        9.9319718598       18.4727164417
  C        -1.6537055881        9.2775060798       19.4299408745
  C        -2.3366294348        8.1113729126       19.0283233399
  C        -2.3762604355        7.7496773722       17.6664899921
  H        -3.8387822204        9.4421520707       16.1326950331
  H        -5.7239082523       10.0069903370       14.9647138778
  H        -0.2513687853        9.9838203447       16.4310249531
  H        -0.3329367977       10.8051840410       18.7811247505
  H        -1.7709358345        9.6560064716       20.4565140371
  H        -2.9119333703        7.5671369860       19.7556662894
  H        -3.0317377014        6.9721332820       17.2892277051
  C        -0.6433697341        7.3153120786       13.0002282285
  C         0.3152749971        6.4962777985       12.3240716284
  C         1.4320052396        5.9362437901       13.0144618815
  C         1.4493756771        6.0766916966       14.4891036889
  C         0.4340372639        6.6538543684       15.2129436214
  C        -2.7134399440        8.6134579042       12.9711260403
  C        -1.6394179714        8.1011611194       12.2952829658
  C        -1.5600530155        8.4210914565       10.8186943171
  C        -0.6397297738        9.3994809579       10.3675511937
  C        -0.6576012032        9.8356223538        9.0378041737
  C        -1.5959542471        9.3697274162        8.1374688793
  C        -2.5054366609        8.3770067895        8.4825330481
  C        -2.4948989420        7.8367209140        9.7986436654
  H        -3.1994859853        7.0718098246       10.0955331149
  H        -3.2727472427        8.0997243697        7.7727885584
  H        -1.6770420901        9.6477542748        7.0893822375
  H         0.0850303584       10.5285968330        8.6670632592
  H         0.1521844179        9.8600564026       10.9901589247
  C        -3.8045850214        9.2485322296       12.2966391587
  C        -4.8974522239        9.7721940347       12.9784884451
  H        -5.7077673295       10.1187647883       12.3888727711
  H        -3.8005423391        9.2907960847       11.1866888437
  C         0.3738397163        6.3230271971       16.6482918811
  C        -0.4161888196        5.3097195082       17.0912814977
  C        -0.3754316554        4.8845471334       18.4216641496
  C         0.3936220485        5.5810886199       19.4386819066
  C         1.1974218157        6.6384845071       18.9116830500
  C         1.2700083271        6.9280976098       17.5340735229
  H         2.0083386118        7.6597606898       17.1737723808
  H         1.8499701696        7.1438844527       19.6375692653
  H         0.5187075129        5.3131189322       20.5035764847
  H        -0.8975344505        3.9302561192       18.6553092167
  H        -1.0730681171        4.8800429956       16.3343270048
  C         2.5176617769        5.4016213776       15.1428978466
  C         3.4220854414        4.5890718561       14.4144816200
  C         3.4823309435        4.5639512046       12.9990782871
  C         2.4545289973        5.1809272827       12.3358037686
  H         2.5084412365        5.1832435814       11.2768168434
  H         4.2292573492        4.0029599694       12.4260811455
  H         4.1328184291        4.0927104193       15.0657051416
  H         2.4710939580        5.4015479752       16.2204322581
  C         0.1775297376        6.0825704489       10.8891707666
  C        -0.7154970812        5.0807490729       10.3969613792
  C        -0.7291241683        4.6790852307        9.0364053433
  C         0.3747188578        5.0068847595        8.2368989510
  C         1.3333279981        5.9681634844        8.7592227862
  C         1.1424408896        6.5685392767       10.0051898275
  H         1.9121839524        7.2530837432       10.3401642162
  H         2.1752893697        6.2520933911        8.0980351809
  H         0.4724847055        4.6128002859        7.2085954871
  H        -1.5447070486        4.0528366428        8.7193117720
  H        -1.4929959363        4.7089753154       11.0477996278
