140

  C        11.8491612980        1.2039730534        1.5517601093
  C        12.9443779980        1.9463936935        2.1828140182
  C        13.9807043589        2.4322315449        1.4210615789
  C        15.0223586327        3.1950490401        2.0905992604
  C        16.0253077640        3.7129042984        1.3926655576
  C        12.9341965808        2.3559500569        3.6792296555
  C        11.9203377386        3.2227314111        4.1525234512
  C        11.8523717501        3.6522906972        5.5074103851
  C        12.8095860408        3.2171556206        6.4501434919
  C        13.6926630259        2.2329575741        5.9403142253
  C        13.7805726037        1.7678220083        4.6396478070
  H        14.8921560232        3.2187851928        3.1823418310
  H        16.9233894304        4.0669872730        1.8195582988
  H        11.1863021606        3.5971565358        3.3902516170
  H        11.0464516917        4.4334163070        5.7047927353
  H        12.8383446693        3.5100791679        7.5011090047
  H        14.4875960018        1.8752022748        6.6057562327
  H        14.5609999258        1.0767395229        4.3196896213
  C        11.7659983536        1.1678347214        0.0606420578
  C        10.7346070757        0.4847437520       -0.6044131320
  C         9.6130225214       -0.0679208284        0.0353785119
  C         9.6327529765       -0.0331739922        1.5384764428
  C        10.7627779915        0.5336850300        2.2058652837
  C        13.9078476028        2.3333970006        0.0199309982
  C        12.8472138900        1.7309384121       -0.7088920874
  C        12.8821502966        2.0783761691       -2.1963488300
  C        12.2963626841        3.3420454727       -2.5481983227
  C        12.2346028006        3.7148779222       -3.9225079191
  C        13.0591857989        3.0298828555       -4.8321256557
  C        13.6714702065        1.8271129067       -4.4530175754
  C        13.5289667919        1.3243290804       -3.1562330683
  H        14.0849253756        0.4385358784       -2.8832143722
  H        14.1434115320        1.2282280350       -5.2429413516
  H        13.2603629576        3.4606265658       -5.7754137636
  H        11.7455340735        4.6410053369       -4.2944110566
  H        11.6600556481        3.8337660253       -1.7939970694
  C        14.9405896452        2.9461144261       -0.7196270601
  C        15.9595796528        3.5657406724       -0.0301982164
  H        16.7708816016        3.9641957365       -0.5996916448
  H        14.9533493789        2.9779101529       -1.7941136036
  C        11.0023450590       -0.0515002960        3.6367006863
  C        11.9317610910       -1.0670968115        3.8038176184
  C        12.0735516546       -1.6701063270        5.0800659169
  C        11.2636842370       -1.2561257396        6.1349191754
  C        10.3044768941       -0.2350784882        5.9867944787
  C        10.2500175272        0.3844037388        4.7248835653
  H         9.5475747758        1.1958892803        4.4737250575
  H         9.7872188023        0.0359671141        6.9254071041
  H        11.2335173989       -1.6202833338        7.1750384746
  H        12.8034421868       -2.4397577765        5.2570366884
  H        12.4441569658       -1.4220202810        2.9516578061
  C         8.5588885667       -0.6094907466        2.2334569519
  C         7.5429645192       -1.1677027491        1.5274017559
  C         7.5959045411       -1.3105308701        0.1067733074
  C         8.6313604972       -0.7980027775       -0.6316669507
  H         8.6301200917       -0.7499714320       -1.7233673453
  H         6.7365050831       -1.7389269891       -0.3775042507
  H         6.7250256575       -1.5654506154        2.1054777428
  H         8.7090962524       -0.8306823240        3.3232914856
  C        10.8619237443        0.1384853078       -2.0780115473
  C        11.5267161476       -1.0612456548       -2.4155416252
  C        11.6048750964       -1.4846343455       -3.7441828190
  C        11.0231957822       -0.8025184139       -4.7794560019
  C        10.3950411204        0.4356015997       -4.4869896116
  C        10.1902361338        0.8285464893       -3.1424998535
  H         9.6357138866        1.7285446439       -2.9863916694
  H         9.9544148582        1.0272442508       -5.2514625773
  H        11.0414044897       -1.2187479886       -5.7996386132
  H        12.2806860041       -2.3475886434       -3.9164176138
  H        12.0673461073       -1.6194827704       -1.6713144256
  C         8.2691261622        8.1743887712        1.5681470260
  C         7.2276395996        8.8521801719        2.2248667188
  C         6.1248989092        9.3970414287        1.5282923193
  C         4.9924339392       10.0007259558        2.1329819642
  C         4.0002199157       10.6246355687        1.4403111114
  C         7.2962574434        9.2432812383        3.6430688401
  C         8.1282613071       10.2656971993        4.0162494631
  C         8.0594572875       10.9382666123        5.2111812902
  C         7.2031246406       10.4748921430        6.2196225677
  C         6.4083899329        9.3723251070        5.8618900023
  C         6.4204175991        8.7725686226        4.6270224591
  H         5.0078574688        9.9943530489        3.2192486838
  H         3.1580156007       11.1718651340        1.9425794524
  H         8.7652440013       10.5949626951        3.1750658504
  H         8.6575987079       11.7707727471        5.4438727724
  H         7.1521896891       10.9485845449        7.1799873571
  H         5.7969469794        8.9547713489        6.6552111190
  H         5.7180342269        7.9805400166        4.4014951343
  C         8.3190128445        8.1501730028        0.0505709546
  C         9.4221566919        7.5136336103       -0.6421973154
  C        10.5629206741        7.0344949430        0.1130222716
  C        10.4509106905        7.0501423946        1.5473535144
  C         9.3069854303        7.5237485306        2.2058468575
  C         6.1933312106        9.3600829119        0.0870569411
  C         7.2333726282        8.7791971412       -0.6932669536
  C         7.2692944237        9.1478498217       -2.2132164646
  C         8.2619375966       10.0526397852       -2.6405494039
  C         8.3991333465       10.3926077391       -4.0407747128
  C         7.4813595325        9.8663165181       -4.8969931262
  C         6.5360634666        8.9211829215       -4.4245939777
  C         6.3934990862        8.5021005697       -3.1104226197
  H         5.6975427770        7.7105691605       -2.7337323494
  H         5.8089900405        8.5324113029       -5.1604933857
  H         7.4520524516       10.2060180037       -5.9563505934
  H         9.1502950322       11.1385605608       -4.2609738307
  H         8.9032259222       10.5315170717       -1.9195380912
  C         5.1373960008       10.1000909876       -0.6366432589
  C         4.0894330593       10.6325899374        0.0277050232
  H         3.3643124513       11.2012366612       -0.5693016456
  H         5.1760303925       10.1363926098       -1.7327761126
  C         9.1603251751        7.0213142718        3.6171743309
  C         8.3588434312        5.8694250069        3.8869665092
  C         8.3230173688        5.3168063428        5.1875011006
  C         9.0594323633        5.9600580879        6.2210781722
  C         9.8036246084        7.0755832330        5.8855080479
  C         9.9018243689        7.5685793677        4.6103887946
  H        10.4386788164        8.5155653250        4.4771771455
  H        10.3767904872        7.5409696126        6.6777403701
  H         9.0128405514        5.3826316834        7.1227394246
  H         7.6507412984        4.4795111138        5.4967075584
  H         7.7379945842        5.5089872979        3.0839257119
  C        11.5344174156        6.3708102998        2.3014837096
  C        12.6427080627        5.8474169919        1.6263156372
  C        12.7250454237        5.9205879354        0.1975265468
  C        11.7208407184        6.4639131232       -0.5617321257
  H        11.7672598910        6.5864781040       -1.6830240305
  H        13.6435172177        5.5132341369       -0.1514439451
  H        13.4771007791        5.4097180157        2.2229431063
  H        11.4788532115        6.3798424470        3.3894498635
  C         9.3242036886        7.0656861595       -2.0840906114
  C         8.4136399327        6.0538200064       -2.4702962716
  C         8.3986748215        5.6124179355       -3.8000978769
  C         9.2888090101        6.1868186763       -4.7265738957
  C        10.1984966386        7.1895278853       -4.3806956877
  C        10.2552684071        7.5481480042       -3.0142127886
  H        10.9905017325        8.3021056437       -2.6702879265
  H        10.8518628223        7.6117791753       -5.1852579167
  H         9.2674253180        5.7923780336       -5.7381774327
  H         7.7661673277        4.7812992159       -4.1582284931
  H         7.5685763332        5.7884436072       -1.7191274019
