140

  C        15.7172890044       -0.9600952907        0.3655866127
  C        16.8055539055       -0.4164340769        1.0795713489
  C        17.9108334761        0.1307701442        0.3589437418
  C        19.0884644786        0.5787493427        1.1161010173
  C        20.2052305822        0.9076680607        0.4336756438
  C        16.7718433103       -0.1340606093        2.6131155993
  C        15.9462377514        0.8499449888        3.1920682646
  C        16.0452855238        1.0867478781        4.5557026939
  C        16.8774348067        0.3488136117        5.3301588840
  C        17.8014182524       -0.5850967462        4.7679652424
  C        17.7221719723       -0.8201471664        3.3962273994
  H        19.0308575865        0.5317352154        2.1839395165
  H        21.2130458410        1.1659788194        0.8247933438
  H        15.2035089851        1.3463468497        2.6410402989
  H        15.4328538377        1.8957541220        4.9678181633
  H        17.0054591897        0.4472371262        6.4298005719
  H        18.4483603623       -1.1941413121        5.4289037922
  H        18.3802139620       -1.5564519710        2.9090778006
  C        15.6823688809       -0.9208546167       -1.1078725068
  C        14.7106146912       -1.7291742919       -1.7483676527
  C        13.6425634167       -2.3506258215       -1.0470861222
  C        13.5689387449       -2.2519763381        0.3623802189
  C        14.6404472915       -1.6323139167        1.0734226175
  C        17.8932373965        0.0910501495       -1.0887098609
  C        16.7599222039       -0.2223561574       -1.8130779680
  C        16.7860950139        0.0643439144       -3.2943062191
  C        15.7654306527        0.9480315464       -3.8243813877
  C        15.7929661823        1.2923035704       -5.1831533582
  C        16.8627279646        0.7549046647       -5.9760147282
  C        17.8038871951       -0.1664704702       -5.4404566889
  C        17.7469789642       -0.5555846969       -4.1009535617
  H        18.4179439646       -1.2562338270       -3.6265033410
  H        18.6713487831       -0.5771797570       -5.9406174443
  H        16.8685253351        1.0225175726       -7.0643426048
  H        15.0593873448        2.0033151723       -5.6088217154
  H        14.9031472820        1.3547670607       -3.2559249519
  C        19.0529590097        0.7040116754       -1.7802599992
  C        20.1421677008        0.9790886687       -0.9891130139
  H        20.9350837416        1.4223060287       -1.5342408987
  H        19.1254932685        0.8504399653       -2.8022493403
  C        14.8607946003       -2.2326046439        2.4296395367
  C        15.7326783791       -3.2905535734        2.5166403477
  C        15.8938157779       -3.9706455092        3.6924062274
  C        15.0637714391       -3.5438154630        4.7933091241
  C        14.0950077035       -2.4960490164        4.7323299181
  C        14.1949227928       -1.7681510867        3.5502763817
  H        13.4668696749       -0.9614195826        3.3029820999
  H        13.4648820204       -2.2354346559        5.5004387387
  H        14.9761863885       -4.2209702443        5.6474243564
  H        16.5552150441       -4.8495824484        3.7786253916
  H        16.1473906756       -3.6077845990        1.6525792505
  C        12.4832621141       -3.0100395280        0.9974053471
  C        11.6080124604       -3.7946464762        0.3121974511
  C        11.7209907103       -3.8818703000       -1.0911554499
  C        12.7237620556       -3.2002650247       -1.7292063491
  H        12.6983680391       -3.1907972228       -2.7741881745
  H        10.8712497883       -4.3189703833       -1.6487175272
  H        10.9636778521       -4.4241046242        0.8446551194
  H        12.4454858450       -2.9472784035        2.0536902322
  C        14.8429475642       -2.2076454309       -3.2431324504
  C        15.6257608436       -3.2920917799       -3.6649021228
  C        15.4571134100       -3.8010500340       -4.9167700655
  C        14.4890641148       -3.2394804777       -5.7755024557
  C        13.7588024120       -2.1594607638       -5.4073543363
  C        13.8590330723       -1.6597572032       -4.1028535331
  H        13.2464078211       -0.8512397495       -3.7280511091
  H        13.1433864326       -1.6558970526       -6.1991251356
  H        14.2564377263       -3.6996476844       -6.7669546351
  H        16.0215031967       -4.6353436237       -5.3020332546
  H        16.2423268464       -3.8046025533       -2.9588861482
  C        12.0614368855        5.9984345772        0.2402522526
  C        11.0170619626        6.6914319394        0.9643151906
  C         9.8700406166        7.2740562753        0.2100346066
  C         8.8000062225        7.9808087406        0.9274282237
  C         7.8209838162        8.5642188734        0.2084657895
  C        11.1447106200        6.9631284800        2.4338557681
  C        11.9920179920        8.0608989145        2.8477712003
  C        12.0708901038        8.3845676153        4.2013424873
  C        11.1576295461        7.8598419136        5.1115849960
  C        10.1772324208        6.9333264235        4.6499873175
  C        10.2220865859        6.4242686594        3.3865372853
  H         8.9151570099        8.1063637194        1.9723829612
  H         6.9872770236        8.9924523367        0.8182722156
  H        12.5816412245        8.5153172018        2.0317845265
  H        12.7838541501        9.0739005274        4.5492438232
  H        11.2967620007        8.1174699319        6.1445664190
  H         9.4711389211        6.5660065328        5.3828489688
  H         9.4598141686        5.7473084369        3.0657695605
  C        11.9871909268        5.9383459886       -1.2355607769
  C        13.0927313275        5.2565698221       -1.8708654042
  C        14.1523618715        4.7134574934       -1.1289263059
  C        14.1288919148        4.7510643182        0.2844720880
  C        13.0024738324        5.2585497603        0.9416235484
  C         9.8553301250        7.1845025508       -1.1865279005
  C        10.9621058128        6.6655314723       -1.8970162995
  C        11.0183213068        7.0740193345       -3.3148079520
  C        11.7369260025        8.2330997219       -3.6761511909
  C        11.7815555476        8.7900163467       -4.9929089330
  C        10.9818058327        8.1661905308       -5.9325790587
  C        10.1866526452        7.0719427975       -5.6166799018
  C        10.1916100499        6.5723475368       -4.2651885986
  H         9.7042153338        5.5908392623       -4.0848014145
  H         9.5174010114        6.5153819349       -6.3277308114
  H        11.0537554549        8.3553618757       -6.9698829102
  H        12.5089466728        9.5819613946       -5.1815698008
  H        12.3563406611        8.6123074963       -2.8492949310
  C         8.7581148311        7.8244434228       -1.8693805549
  C         7.7400614068        8.4799751124       -1.2069133676
  H         7.0025975611        8.8946478037       -1.8798499569
  H         8.7462103927        7.7734223078       -2.9470342993
  C        12.8898214167        4.8610845840        2.4097781577
  C        12.2281518893        3.7693205514        2.8253554102
  C        12.2214344774        3.3128089643        4.1414085685
  C        13.0380948046        3.9790269475        5.0964380067
  C        13.8649493728        5.0198221155        4.6334281850
  C        13.7064994293        5.5602129029        3.3653773045
  H        14.2958981362        6.4697667022        3.1149151475
  H        14.5570754834        5.5367345837        5.3496122596
  H        13.0759524768        3.5867955505        6.0739133726
  H        11.6260342728        2.5096930287        4.5285985505
  H        11.6263243415        3.1927763714        2.0951834473
  C        15.1470002406        4.0743393658        0.9790169521
  C        16.1976227908        3.4662568553        0.3305873437
  C        16.2698283954        3.4708458898       -1.0838977732
  C        15.3086830051        4.1403022931       -1.7902271638
  H        15.3476344827        4.1893728800       -2.8762915026
  H        17.1944750292        3.0665888434       -1.5426142631
  H        17.0073056283        3.0360834777        0.9261223844
  H        15.0787478832        4.0333541010        2.1178168806
  C        13.0936381050        4.9051424771       -3.3007921628
  C        12.2475557314        3.9017580575       -3.8101620107
  C        12.3236857692        3.4194191400       -5.1196478946
  C        13.3008329187        3.9801140810       -5.9970719743
  C        14.1425490720        4.9202844229       -5.4757031584
  C        14.0103376375        5.4959288641       -4.1768133272
  H        14.6340860562        6.3017921663       -3.8587937518
  H        15.0125384300        5.3377818337       -5.9265732721
  H        13.4708497389        3.6586783753       -7.0425157499
  H        11.6844485303        2.6579330545       -5.5806035035
  H        11.4541623614        3.5267227151       -3.1794424871
