140

  C         4.3257405892       -0.8002329679       14.0996866380
  C         5.2658142841       -0.1822695541       14.9092936252
  C         6.4619995702        0.3021982602       14.3462032811
  C         7.4572798890        0.9863741045       15.1015928112
  C         8.5539096829        1.6401105129       14.5478098448
  C         5.0117880082        0.2499293766       16.3224489186
  C         4.2197628090        1.3769546613       16.6078631183
  C         4.0541287842        1.8498137383       17.9334016138
  C         4.7667318602        1.2274591187       18.9643576818
  C         5.7098853402        0.2721391367       18.6585909061
  C         5.8287639936       -0.2066006983       17.3586326135
  H         7.3429520930        1.0188919437       16.1680474023
  H         9.3354719681        2.0661224343       15.0896713288
  H         3.6946889309        1.9439670688       15.8228287860
  H         3.2997134682        2.6138235415       18.1792390313
  H         4.5857237297        1.5258502035       20.0281237542
  H         6.2660195145       -0.0916895856       19.5730027262
  H         6.6624633643       -0.9333477987       17.1083401152
  C         4.4971733733       -0.9834910275       12.6521044256
  C         3.5171847066       -1.6462148969       11.8597858399
  C         2.3933058900       -2.1408484091       12.4761935529
  C         2.2291966614       -2.0034883373       13.9500985891
  C         3.1837664425       -1.4025958082       14.7758082456
  C         6.5224913178        0.4118684599       12.9016297661
  C         5.5132903778       -0.1498651114       12.0754030912
  C         5.5501050779        0.2046170324       10.6787919364
  C         4.7975609616        1.2334160319       10.1469978760
  C         4.8938649911        1.5717361268        8.7800947657
  C         5.9362350506        1.0562295163        7.9890517801
  C         6.7064378761       -0.0195751306        8.4939116454
  C         6.5651133823       -0.4114812896        9.8451144347
  H         7.1514781406       -1.2359930431       10.2700948804
  H         7.4529197454       -0.4650336472        7.8547000415
  H         6.0029861111        1.3379607652        6.9568128849
  H         4.2989428643        2.3237782810        8.3415015530
  H         4.1671759689        1.8523703281       10.7835096291
  C         7.4986311429        1.2967789668       12.3691166836
  C         8.5696350979        1.7398068895       13.1417028273
  H         9.4243227407        2.3287712063       12.8180447836
  H         7.5609490833        1.5590967549       11.3199559506
  C         3.1363688956       -1.7098070313       16.2528810042
  C         3.8318763165       -2.9058900280       16.6819932669
  C         3.6687870859       -3.4245268164       17.9592082535
  C         3.0248947015       -2.6285973520       18.9536865941
  C         2.2976215156       -1.5413107117       18.4933788630
  C         2.3109568699       -1.1030910078       17.2008568684
  H         1.6305930119       -0.2443731872       16.8659357917
  H         1.8028558700       -0.9023300801       19.1842307399
  H         3.1035216209       -2.9977166094       19.9668681765
  H         4.2431432920       -4.2604077896       18.3361054512
  H         4.4963733527       -3.4413070849       15.9570321671
  C         1.1215200375       -2.6491528968       14.5137702114
  C         0.0678065272       -3.1799864131       13.8174543977
  C         0.1335218254       -3.1645070345       12.4663895187
  C         1.2652669290       -2.7247518718       11.8171272441
  H         1.3356855955       -2.7797099598       10.6978869481
  H        -0.7361102358       -3.5586109855       11.9108855630
  H        -0.8186393708       -3.4861088232       14.3149984102
  H         0.9791638450       -2.5566053134       15.5922741279
  C         3.5869861845       -1.8185508206       10.4269701701
  C         4.5120441780       -2.7498273566        9.9007753576
  C         4.4906006290       -3.0943003891        8.5879814253
  C         3.5480401597       -2.4493754323        7.7000970011
  C         2.6093337881       -1.4894944273        8.2034899853
  C         2.6810610098       -1.2534755047        9.5636458601
  H         1.9202749270       -0.6083799020        9.9712331297
  H         1.9243483355       -0.9546066882        7.5917036219
  H         3.5825890218       -2.5923319764        6.6289748895
  H         5.1191528588       -3.8188625796        8.0485955412
  H         5.2163761717       -3.2343068352       10.5675430990
  C         0.8886965134        6.3489165867       14.0645706703
  C        -0.0766019446        7.1327465355       14.7226639306
  C        -1.0366828240        7.8068336982       13.9653965326
  C        -2.0346791489        8.6294138584       14.6956218254
  C        -3.1407857288        9.1839027510       14.0533895169
  C        -0.0454485288        7.4525322221       16.1568870711
  C         0.6936356769        8.5703233144       16.4390859958
  C         0.6989672373        9.2312996781       17.7331885144
  C        -0.1558076592        8.7592435554       18.7393621706
  C        -0.9015298708        7.5915473622       18.4534161616
  C        -0.8801242187        6.9899400282       17.2080028609
  H        -1.9007407121        8.7477002229       15.7626383582
  H        -3.8220714583        9.7470679196       14.6713382376
  H         1.3670889962        8.9882190059       15.6858713184
  H         1.2985741224       10.1143626471       17.8545864372
  H        -0.1924928239        9.3304319545       19.6823408561
  H        -1.6232891565        7.0564144451       19.0690765687
  H        -1.3173335221        6.0016968256       17.1128870262
  C         0.9586135836        6.4014792910       12.5741759022
  C         2.0891372282        5.7260488467       11.9537096858
  C         3.0612579830        5.0990812889       12.7068757284
  C         3.0450162934        5.1967692028       14.1855079290
  C         1.9474310668        5.7295188085       14.7988628839
  C        -1.1926456745        7.6724545272       12.5304797223
  C        -0.0516314481        7.0836508650       11.8547924163
  C        -0.1190521998        7.2807693812       10.3698863388
  C         0.7202221739        8.2349605113        9.7481093591
  C         0.5653445269        8.6409488501        8.4078251775
  C        -0.3423415436        7.9535128940        7.5931643327
  C        -0.9826693639        6.8124985794        8.1524836407
  C        -0.9068022300        6.4970415992        9.4971148227
  H        -1.3653558400        5.6184390240        9.8534599772
  H        -1.5786879680        6.1366165302        7.4813624414
  H        -0.4956127818        8.2697520614        6.5867537756
  H         1.1250625162        9.4910928499        8.0696115186
  H         1.4546808579        8.7754827931       10.3184229956
  C        -2.4110292281        8.1558332241       11.9510612889
  C        -3.3429574128        8.8710235123       12.6612598427
  H        -4.2917172119        9.2108986667       12.2459027714
  H        -2.6212440737        7.9579750693       10.8695980152
  C         1.7641513741        5.3892604276       16.2337662367
  C         0.9676664308        4.2219836260       16.4770998610
  C         0.8630638860        3.6688891124       17.7678547883
  C         1.5551397234        4.3156686804       18.8903830524
  C         2.3550967081        5.4053517175       18.6248329258
  C         2.4551531463        5.9705657903       17.3445719174
  H         3.1566898818        6.8053775698       17.1857641945
  H         3.0501568113        5.7670477811       19.3381914143
  H         1.7025306412        3.8344822364       19.8791961199
  H         0.2590624170        2.7792696932       17.9031222352
  H         0.5582216175        3.6458831838       15.6722067507
  C         4.1445319510        4.4812042742       14.9240269261
  C         5.1539002977        3.8409674666       14.2640511306
  C         5.2265299836        3.8464145257       12.8241273838
  C         4.1786636551        4.4372027713       12.1234880100
  H         4.3709755667        4.4543427350       11.0461004326
  H         6.1341525311        3.3912199158       12.3639859348
  H         5.8963963187        3.3406151561       14.8576140318
  H         4.2182194826        4.6174988500       16.0035764887
  C         1.9205571234        5.3751064124       10.5361659025
  C         1.1894388060        4.2175575777       10.3143853689
  C         1.0573401235        3.6499702907        9.0185933884
  C         1.8544785962        4.2032178416        7.9977609684
  C         2.6106039045        5.3740106843        8.2039420101
  C         2.6533261500        5.9254577788        9.4857774705
  H         3.3714232200        6.6847897856        9.7266571880
  H         3.2542553817        5.7700531998        7.4475528156
  H         1.8852755692        3.7376025573        7.0149033408
  H         0.4289605349        2.7636952332        8.8827266005
  H         0.7586336895        3.6899425423       11.1884810294
