140

  C         1.9450338652        0.9084934229       14.7466733330
  C         3.0274245381        1.4566202645       15.5153541715
  C         4.0931131619        2.0936614638       14.8553022228
  C         5.2239682263        2.6912996035       15.5311661501
  C         6.2427541626        3.2526041078       14.7632245424
  C         2.7429013776        1.8988744866       16.9337440756
  C         1.8061706557        3.0035683841       17.1417995568
  C         1.8255343073        3.7206552256       18.3076889354
  C         2.6161747818        3.2408996713       19.3622002395
  C         3.5911304612        2.2108862749       19.2158106666
  C         3.6123981711        1.4934433649       17.9694193808
  H         5.2779530947        2.6509280981       16.6648785657
  H         7.1586815266        3.5902117012       15.2529989058
  H         1.2831957351        3.3714472475       16.2569198108
  H         1.1777184811        4.6077506306       18.4635287727
  H         2.5487680144        3.7575342506       20.3277414317
  H         4.1457017357        2.0056795671       20.1238663116
  H         4.2819992758        0.6222064028       17.8637887857
  C         1.9169270816        0.8455382047       13.2815645114
  C         0.9123595628        0.0665812271       12.6649041459
  C        -0.2131668409       -0.4156660159       13.3756850327
  C        -0.2038921088       -0.3765561770       14.8262540520
  C         0.9002219906        0.1983591456       15.4952257437
  C         4.0206416558        2.1803936370       13.3922200570
  C         2.9685215307        1.5945446809       12.6462423406
  C         2.9132391290        1.8927389985       11.2038499129
  C         2.3143519749        3.0587749363       10.7877219957
  C         2.2324382316        3.2851613104        9.3574803960
  C         3.0131193048        2.5682036647        8.4071669871
  C         3.8181516166        1.5412589744        8.9144520367
  C         3.6790787395        1.1752332338       10.2822986191
  H         4.1917913740        0.2822207842       10.5439920553
  H         4.5319174665        0.9917159572        8.3091482712
  H         3.0438729132        2.9633498117        7.3753124702
  H         1.5121330161        4.0482481717        9.1040429375
  H         1.7747437564        3.6239534273       11.5548126556
  C         5.1325502190        2.8126966404       12.6609240623
  C         6.2219037569        3.2769861285       13.3297228461
  H         7.0831418496        3.6323076938       12.7543481930
  H         5.0310168541        2.9319045029       11.6028813054
  C         1.0451836089       -0.1452099137       16.9307545222
  C         2.1533842433       -0.8746930113       17.3670537674
  C         2.2399591155       -1.3103670803       18.7576208593
  C         1.2729943720       -0.9128906111       19.7330574832
  C         0.1906233968       -0.1354070340       19.2624198830
  C         0.1700912437        0.2235025946       17.9256776077
  H        -0.7136881990        0.8645931265       17.7515269038
  H        -0.6393620439        0.2060936047       19.9130425248
  H         1.4132073139       -1.2200944701       20.7849650878
  H         3.1588205472       -1.8301325462       19.1257140699
  H         2.8975848284       -1.2855716108       16.6866754434
  C        -1.2688433842       -1.0061815613       15.4749839451
  C        -2.2024093444       -1.8568457732       14.8617144935
  C        -2.1791124485       -1.8368350536       13.3922511092
  C        -1.2121349020       -1.2041595618       12.6645194021
  H        -1.2890793629       -1.1334315148       11.5590138578
  H        -2.9733586572       -2.3992483974       12.8903956659
  H        -3.0260896104       -2.4093274974       15.4067666703
  H        -1.2660429525       -0.9660829924       16.5868294458
  C         1.0588041887       -0.2610652996       11.1957751646
  C         1.8854536133       -1.2703768493       10.8168164869
  C         1.9347235262       -1.7280299338        9.4587906686
  C         1.1515163956       -1.1632870196        8.5128718647
  C         0.2924161640       -0.1165994199        8.9083533826
  C         0.2371163752        0.3044645689       10.2079373095
  H        -0.5453502104        1.0086080984       10.4456981512
  H        -0.3957964136        0.3831921129        8.2420391970
  H         1.2272382876       -1.5225234635        7.5074122658
  H         2.6640459846       -2.4969854929        9.1173623389
  H         2.6108928373       -1.6629597083       11.5436271410
  C        -1.6330380369        8.0350130829       14.7973658585
  C        -2.7150735291        8.5870827403       15.4918304958
  C        -3.7912199954        9.1849109069       14.7986678026
  C        -4.9002307318        9.8256885942       15.4285932719
  C        -5.9117407675       10.4247273844       14.7889292532
  C        -2.6735125552        9.0521745129       16.9489327829
  C        -1.8429425065       10.0784749695       17.4603166793
  C        -1.9903686035       10.6058755400       18.7443089879
  C        -2.8891278940        9.9729046913       19.6456027512
  C        -3.6048561471        8.8370303095       19.2493040036
  C        -3.5751757538        8.4374866710       17.8925276332
  H        -4.9087418051        9.8563446046       16.5268608408
  H        -6.7089623592       10.9461745885       15.2883187040
  H        -1.1602984878       10.4775320419       16.7552399941
  H        -1.4916487122       11.5254464449       19.1175601124
  H        -3.0213140211       10.2853402786       20.6750602889
  H        -4.2629540742        8.2638085354       19.9510431734
  H        -3.9996097710        7.5807895950       17.4837238296
  C        -1.5479038823        8.1105903776       13.2855216326
  C        -0.5373340934        7.3517890538       12.6282050590
  C         0.5996672770        6.8463797247       13.2507037562
  C         0.5632185180        6.8508191407       14.7438202951
  C        -0.5101294818        7.4325258117       15.4670757340
  C        -3.7725039952        9.1788856851       13.3203534882
  C        -2.6137737102        8.7493455889       12.5951657872
  C        -2.5133341599        9.1563271162       11.1709824288
  C        -1.6753731521       10.2660871530       10.8634692175
  C        -1.6710314748       10.8685086376        9.6050845438
  C        -2.5170602885       10.2958463502        8.6281830808
  C        -3.2655672611        9.1472798725        8.8626870518
  C        -3.2957725439        8.6164925873       10.1757746167
  H        -3.9206847036        7.7517080585       10.4029763670
  H        -3.7627655327        8.5933428591        8.0055386172
  H        -2.6317708723       10.8869783313        7.6985423835
  H        -1.1624096726       11.8117493719        9.4975823359
  H        -1.1494459933       10.7437201478       11.6462646026
  C        -4.8967064166        9.8666268780       12.6631570414
  C        -5.9343048519       10.4964318541       13.3758702644
  H        -6.6703933322       11.1140323668       12.8438068600
  H        -5.0104961876        9.9734116563       11.5992779934
  C        -0.6087824250        6.9926497422       16.9246840635
  C        -1.4069147526        5.8594114054       17.1844573958
  C        -1.5906861108        5.3696470444       18.4564060446
  C        -0.8633953988        5.9671192655       19.4903015408
  C        -0.0622526053        7.0774988951       19.2516617599
  C         0.1099599396        7.6155481363       17.9587853240
  H         0.8965756728        8.4125646806       17.6887492092
  H         0.5061734075        7.5073078725       20.0677792809
  H        -0.9592762978        5.6931733003       20.5535753414
  H        -2.2835353594        4.5994586424       18.6183815975
  H        -1.8987048665        5.4480695387       16.3399122461
  C         1.6368159463        6.1909541959       15.4163965004
  C         2.6479790329        5.5926533083       14.7080646249
  C         2.6207286928        5.5492274473       13.2907549875
  C         1.5967763332        6.1100283392       12.5999489381
  H         1.6214010334        6.0884840600       11.5267271654
  H         3.4022596900        5.0997015440       12.7503025577
  H         3.5600538943        5.2970511031       15.2728597754
  H         1.6829257904        6.3022574621       16.5012870138
  C        -0.6296534417        7.0117172524       11.1571564480
  C        -1.3768864971        5.9220719642       10.7235352533
  C        -1.3304895274        5.4666641055        9.4060018173
  C        -0.3698403434        6.0685139791        8.5064263818
  C         0.4171144895        7.1442231464        8.9404640681
  C         0.2172304079        7.6403183473       10.2154663126
  H         0.7480501682        8.5406864765       10.4811419568
  H         1.0995650194        7.6170977796        8.2337565325
  H        -0.1923889916        5.6865282363        7.4984126608
  H        -1.9811874845        4.6883987656        9.0608907269
  H        -2.1171224785        5.4659089740       11.3233955955
