140

  C         3.3850047704       -0.2043043897       14.7100618430
  C         4.3823839614        0.6115811708       15.3023182760
  C         5.4104747320        1.2189235069       14.5541379724
  C         6.3250996536        2.1129289639       15.2037377115
  C         7.3015666493        2.7340712035       14.4652920413
  C         4.1968961846        1.1205582439       16.7372024918
  C         3.1108039302        2.1185556591       16.8257296519
  C         2.8643292753        2.7359008629       18.0676855028
  C         3.6829695283        2.4459470765       19.1724343013
  C         4.6719795012        1.4336967765       19.0934347699
  C         5.0001526348        0.8398994553       17.8564770083
  H         6.0712518732        2.3286044587       16.2156980695
  H         7.9695972239        3.4435025401       14.9358107168
  H         2.4651817657        2.2168552755       15.9922816030
  H         1.9911470155        3.4075917021       18.1299851241
  H         3.4353790280        2.9205470614       20.1045551623
  H         5.3658001793        1.3339465424       19.9649011362
  H         5.7332666113        0.0711301624       17.7591490658
  C         3.2977611030       -0.1737991648       13.1882565717
  C         2.1766961330       -0.7196215248       12.5510772340
  C         1.1119673530       -1.1475306320       13.4035394337
  C         1.2324463482       -1.2890222870       14.8056313298
  C         2.4264059177       -0.8639103734       15.5066900481
  C         5.5063541026        0.9943236414       13.1343908224
  C         4.3627395395        0.3675405666       12.5007633147
  C         4.0900568881        0.9062403571       11.1396944935
  C         3.2151080971        1.9669174288       11.0403028624
  C         2.9801068488        2.6108436503        9.8281656263
  C         3.6850005809        2.1955337050        8.7351862415
  C         4.7274801013        1.2561591564        8.8198116483
  C         4.9039735075        0.5625946198       10.0159612787
  H         5.6923939160       -0.1460810819       10.2409367021
  H         5.3273268475        1.0009420512        7.9132394744
  H         3.4941765626        2.6778457018        7.7675875507
  H         2.1880337293        3.3453228102        9.7224018461
  H         2.6446566342        2.1411786501       11.9430597590
  C         6.5679286396        1.5917403537       12.3952228391
  C         7.4633229318        2.4951801622       12.9947830252
  H         8.2120655005        3.0766193439       12.4633898484
  H         6.6784052195        1.3773114737       11.3610442588
  C         2.4558737602       -1.0240085941       17.0371553517
  C         3.2193318688       -2.0731481292       17.6164342489
  C         3.1369763167       -2.4403481211       19.0117364103
  C         2.2589938451       -1.6145519843       19.8361496625
  C         1.5407410995       -0.6039699542       19.2524907270
  C         1.6004955067       -0.3161759362       17.8650104628
  H         0.9278820378        0.5242459569       17.5457392285
  H         0.9346312706        0.0330731891       19.9756161388
  H         2.1919528555       -1.8487854386       20.8575029989
  H         3.7837601243       -3.2110704992       19.4513453399
  H         3.9304440205       -2.6472113628       17.0009920337
  C         0.0742045253       -1.7869390846       15.5949863668
  C        -1.0066457474       -2.2617621455       14.9103162003
  C        -1.0961783536       -2.1387849357       13.5056338068
  C        -0.0266549366       -1.7565849640       12.7962176165
  H        -0.1350005604       -1.8429710851       11.7384635866
  H        -1.8872169202       -2.7123531445       13.0640959946
  H        -1.8645963934       -2.6843753359       15.4738361693
  H         0.0293081685       -1.8732135852       16.6984668676
  C         2.1340307333       -1.2453043134       11.1865295106
  C         2.9011863971       -2.2870806401       10.6787865772
  C         2.9975765859       -2.6523110192        9.2684963355
  C         2.2599812600       -1.9181986870        8.3553175204
  C         1.4864034838       -0.8228879491        8.8654466922
  C         1.4167478110       -0.4749073340       10.1975708195
  H         0.9067778005        0.4227604674       10.4705615136
  H         0.8804831401       -0.2776863050        8.2127664419
  H         2.4160304532       -2.0980520599        7.2295774651
  H         3.7087314213       -3.4300006160        9.0400050092
  H         3.4566195257       -2.9973713019       11.3474972391
  C        -0.3943638529        7.0508877610       14.9118610992
  C        -1.3548850767        7.7300159678       15.7327232225
  C        -2.4632306419        8.2561534446       15.0005578772
  C        -3.4717356566        8.8734643390       15.7843680986
  C        -4.5157224723        9.5710126553       15.1698336773
  C        -1.2318065669        8.2279692138       17.1601645683
  C        -0.4773834967        9.4303784964       17.3406563967
  C        -0.3325365154       10.0701389514       18.5696196173
  C        -0.9808692117        9.5482118160       19.7085533752
  C        -1.6704837177        8.3789868811       19.5507468317
  C        -1.8181913243        7.7476595005       18.3004406787
  H        -3.5364605652        8.6225639457       16.8175438831
  H        -5.2449364179       10.1136678918       15.8040047311
  H         0.1597009051        9.6938600192       16.5146087693
  H         0.4452650643       10.8324255072       18.7334198502
  H        -0.9029159518       10.0450059324       20.6767432717
  H        -2.1460355777        7.9513395335       20.4295593721
  H        -2.3601466732        6.7921818315       18.2738653030
  C        -0.3929822651        7.1561927534       13.4333575191
  C         0.5842226981        6.4601094748       12.6607848912
  C         1.7418688436        5.8925159121       13.3824707661
  C         1.8617156638        5.9340157186       14.8326647587
  C         0.7374049885        6.4332845065       15.5439803192
  C        -2.4676697050        8.4866009421       13.5787075968
  C        -1.4695140242        7.9352423587       12.7763175543
  C        -1.2562696736        8.4435807496       11.3645228145
  C        -0.1261505295        9.2118567789       11.0821374381
  C         0.1188245463        9.7025584923        9.8109399936
  C        -0.6932100786        9.3287504073        8.7006674722
  C        -1.8203282067        8.5011284351        8.9757946700
  C        -2.1026926174        8.1005417245       10.2853143304
  H        -2.8677574889        7.3751321417       10.4401364957
  H        -2.5449435806        8.1065306532        8.2136342563
  H        -0.3101474207        9.4913712236        7.6878134047
  H         1.0509854437       10.2440044943        9.6511584116
  H         0.4674844732        9.3750138260       11.9711655231
  C        -3.5094467608        9.3037707206       13.0473398241
  C        -4.5182091292        9.8313690784       13.7737947535
  H        -5.2705990622       10.4595838081       13.3561715630
  H        -3.6518369146        9.4013734028       11.9679289548
  C         0.7266917174        6.0476650358       17.1026873484
  C        -0.0203238491        4.9230803568       17.5250011532
  C        -0.0744820210        4.5757291681       18.8955798705
  C         0.7718973371        5.1965622571       19.8339868868
  C         1.5828039310        6.2712214036       19.3914511466
  C         1.5589801429        6.7153080695       18.0414145293
  H         2.0394475808        7.6365757448       17.7661174306
  H         2.3794792328        6.6037590868       20.0901077626
  H         0.8734777917        4.8325538667       20.8455902289
  H        -0.6843068275        3.6916326284       19.1308523868
  H        -0.6476618132        4.4549016538       16.7378472935
  C         2.9510644332        5.1920438112       15.5312237799
  C         3.9241204666        4.5517615912       14.7621608665
  C         3.8714507990        4.6087861070       13.3401492256
  C         2.8094419149        5.2011647072       12.7210643160
  H         2.7560410405        5.0497903631       11.6314178287
  H         4.5600747620        3.9858025339       12.7619896187
  H         4.7446949006        4.0149401500       15.2079593429
  H         2.9782222772        5.1652559922       16.5861903589
  C         0.3736526545        6.1744301475       11.2440433371
  C        -0.7154971830        5.4206614539       10.8107546905
  C        -0.7204770288        4.9628453227        9.4790891273
  C         0.2487573194        5.3393452341        8.5167257241
  C         1.2232930623        6.2375213445        8.9543222460
  C         1.2507123447        6.6912966244       10.2762777186
  H         2.0785395231        7.3645357457       10.5437441816
  H         1.7897946766        6.7467513804        8.1849738725
  H         0.1567815775        4.9973054104        7.5029994010
  H        -1.5425578892        4.3335247677        9.0501355493
  H        -1.5186817068        5.1009328536       11.4794457005
