140

  C        11.7752583896        1.1686880679        1.4398729498
  C        12.8219361588        1.8802220117        2.0994145178
  C        13.9758551806        2.3715913153        1.4260248009
  C        15.1194610398        2.9923342903        2.1356654582
  C        16.1975790563        3.5153987492        1.4526927961
  C        12.5886360459        2.2091595737        3.5466155397
  C        11.7957572937        3.2980130072        3.8636936080
  C        11.5845281804        3.7939427893        5.2087777332
  C        12.2274833857        3.0745928217        6.1883014115
  C        13.1730316816        2.0879054039        5.8749770444
  C        13.4063222812        1.6493994850        4.5681788156
  H        15.0152356927        2.8138597305        3.2357752922
  H        17.0570103241        3.9047392984        1.9634230438
  H        11.2282669992        3.8056159519        3.0727005209
  H        10.9982906756        4.6386027037        5.4637305352
  H        12.2245456260        3.3825082638        7.2487624792
  H        13.8002842140        1.6601994704        6.6274326278
  H        14.0430522664        0.8146678323        4.2798332257
  C        11.7633329758        1.1904901953       -0.0055080548
  C        10.7198967500        0.5861042231       -0.7501387279
  C         9.5675127655        0.1634751676       -0.1005724590
  C         9.6389632369       -0.0875701030        1.3893922549
  C        10.7040745226        0.4576639406        2.1284315798
  C        13.9613194198        2.3852417263       -0.0084571765
  C        12.8369109747        1.8463281609       -0.6623808286
  C        12.6703456636        2.2020962783       -2.0971206685
  C        11.8001099180        3.3110572594       -2.4389682442
  C        11.7553949446        3.7719919505       -3.7418979949
  C        12.6095740707        3.3008491176       -4.7371243223
  C        13.5303756441        2.3397713143       -4.3845522193
  C        13.5896732476        1.7985490281       -3.1467883797
  H        14.2702788677        0.9352998340       -3.0098535002
  H        14.3212500377        2.0643410123       -5.0688759894
  H        12.6432081514        3.7032622594       -5.7398645659
  H        11.0162780179        4.5422992076       -4.0333416481
  H        11.0818910831        3.6761565921       -1.6821855723
  C        15.0166273947        3.0705109376       -0.6419207298
  C        16.0804939114        3.6117249667        0.0374335598
  H        16.9239412694        4.1732935048       -0.5027769857
  H        14.9533875806        3.0900731422       -1.7792002254
  C        10.8731451572        0.0030757893        3.5307934346
  C        11.7795421944       -1.0218676733        3.9097804953
  C        11.8297486370       -1.3924407755        5.2896821661
  C        11.0781023954       -0.7649119267        6.2703020096
  C        10.2041056395        0.3215873338        5.8905109944
  C        10.1277471490        0.6900306375        4.5630111175
  H         9.5112700651        1.5539536492        4.2669108950
  H         9.4977361294        0.8879192591        6.5213786503
  H        10.9950437418       -1.2980414838        7.1864232163
  H        12.5122626683       -2.1629446664        5.5717455343
  H        12.3457782873       -1.5081111638        3.1726408707
  C         8.5407855834       -0.7474428050        2.0503218685
  C         7.4358700467       -1.1016374140        1.3406391812
  C         7.3427713839       -0.8756158858       -0.0401960842
  C         8.3961624494       -0.4215313556       -0.7620806923
  H         8.2403444884       -0.2644886080       -1.7970770612
  H         6.4365236144       -1.2255482492       -0.5334538767
  H         6.6622781870       -1.7650684882        1.8040451417
  H         8.6291458456       -0.9635949739        3.1423841255
  C        10.8064705074        0.1449919444       -2.2168017983
  C        11.8206295655       -0.7444963241       -2.5716318176
  C        12.0042884864       -1.1991976798       -3.8534814173
  C        11.0394042645       -1.0051302072       -4.8526522156
  C         9.9337509319       -0.1884837892       -4.4528548317
  C         9.8236716465        0.3337132595       -3.2039006713
  H         8.9375186254        0.9899526365       -3.0675946604
  H         9.1458906489       -0.1189297896       -5.2009830724
  H        11.1795569509       -1.4240922197       -5.8547060020
  H        12.9133624614       -1.8282309153       -4.0515764711
  H        12.6028663556       -0.9374113189       -1.8616132022
  C         8.1018275706        8.6411965274        1.4832228416
  C         7.0041692079        9.2403493418        2.2571438013
  C         5.8524287100        9.6218456368        1.5364804381
  C         4.8616151730       10.3742133868        2.2577913210
  C         3.8207063903       11.0298441649        1.6438209819
  C         7.1136394655        9.5826072334        3.6817474682
  C         7.9923340766       10.5910436199        4.1071103135
  C         8.0553651297       10.9492109659        5.4782452427
  C         7.2168630016       10.3528090665        6.3984501492
  C         6.2546440493        9.3992711587        5.9995284766
  C         6.2779218524        8.9414335607        4.6558324762
  H         4.9652595545       10.3565634036        3.3296338111
  H         2.9898960620       11.5001462847        2.1781333660
  H         8.6772765800       11.1546621855        3.4834777387
  H         8.8668622573       11.6418716458        5.8172118050
  H         7.3529578024       10.7085861727        7.4273185724
  H         5.6015716093        8.9354981952        6.7072592745
  H         5.5413239943        8.1881574564        4.3905363124
  C         8.0648585371        8.5530299334        0.0076260220
  C         9.0943651394        7.8175638913       -0.6870102392
  C        10.2337638666        7.4011399569       -0.0094729106
  C        10.3094520932        7.5117517010        1.4870629060
  C         9.2183248471        8.0838016606        2.1939788344
  C         5.8117132238        9.6202915013        0.0807469686
  C         6.9569777343        9.1218899501       -0.6404037000
  C         7.0894234593        9.5156290205       -2.0757046476
  C         8.1011219996       10.3866935667       -2.4904600912
  C         8.2021707772       10.8636125264       -3.7704587255
  C         7.3628090033       10.4230991072       -4.7135999486
  C         6.3215086452        9.5416745288       -4.3256250747
  C         6.1357961111        9.1288336184       -3.0195761778
  H         5.3122566556        8.4422348064       -2.6533991860
  H         5.6051353148        9.1958315955       -5.1103821190
  H         7.4652460024       10.6413758113       -5.7990483709
  H         9.0887462864       11.3947599531       -4.1139634430
  H         8.7149517043       10.8336361821       -1.7450049780
  C         4.7305198134       10.3527349666       -0.5526108185
  C         3.7691770875       10.9654281902        0.2157098794
  H         2.9364393543       11.4070031723       -0.2781367742
  H         4.7697515186       10.4333366059       -1.6287993805
  C         9.2299079010        7.6693351005        3.6416413037
  C         8.3685110460        6.5920976877        3.9748198691
  C         8.3822748836        6.0152451628        5.2761014922
  C         9.2933210609        6.5358833662        6.2064841448
  C        10.1576948391        7.5269523006        5.8935063715
  C        10.0338551519        8.1967763653        4.6693931086
  H        10.8698598158        8.8672701560        4.4299277690
  H        10.8388705256        7.8439576099        6.6717509125
  H         9.2159986200        6.0377834289        7.1845992440
  H         7.6859132599        5.1816494347        5.3412668737
  H         7.7016144678        6.1034524604        3.2602236693
  C        11.3940574019        6.8736154873        2.1474629003
  C        12.3194251294        6.1904061168        1.3864952613
  C        12.2366374625        5.9923708364       -0.0152425882
  C        11.2242541916        6.5866594082       -0.6608715797
  H        11.0840611342        6.2867255052       -1.6853040069
  H        12.9618430740        5.4336233088       -0.5288670354
  H        12.9774354971        5.5526438118        1.9937578250
  H        11.5167270889        6.7283260278        3.2062743067
  C         8.9663393185        7.3364165034       -2.1160986078
  C         8.1660027077        6.2719520709       -2.5412455156
  C         8.2897073726        5.8166639338       -3.8525653615
  C         9.1297150052        6.4139603548       -4.7393501977
  C         9.9173788835        7.4960171214       -4.4166516486
  C         9.8148498923        7.9115868808       -3.0900247791
  H        10.5106141407        8.7494998442       -2.8289936001
  H        10.6591934154        7.9614194411       -5.1091811187
  H         9.2999749876        5.8614943283       -5.7209231920
  H         7.6933347298        4.8992083319       -4.1546621023
  H         7.5591685280        5.8051987569       -1.7720276844
