140

  C        14.7595666669        0.2560129050        1.6374709016
  C        15.7664990649        1.0944853957        2.2575648106
  C        16.7690159049        1.6213843760        1.4694133627
  C        17.9941692701        2.1847423693        2.0522960124
  C        19.0211622236        2.6184630255        1.2970394925
  C        15.6805788907        1.5317742619        3.6995717543
  C        14.8795220678        2.5784826351        4.3193574338
  C        14.6848951860        2.6428351078        5.7014617073
  C        15.5646342452        1.9074871203        6.5375325916
  C        16.4554639762        1.0503019915        5.9638225732
  C        16.5213353468        0.8319040415        4.5762336149
  H        18.0501432909        2.4606098604        3.1274092873
  H        19.8946646083        3.1307500798        1.6610748486
  H        14.0797002857        3.0418225049        3.6381761337
  H        13.8794077504        3.2893239718        6.1010687590
  H        15.4091963010        2.0559785620        7.5918670622
  H        17.1890016825        0.4986489800        6.5968414290
  H        17.2203000601        0.1044471299        4.1923310231
  C        14.6920082691        0.1185672203        0.1702316253
  C        13.6228358936       -0.4932854253       -0.4616583595
  C        12.6314043134       -1.0259832705        0.3895218023
  C        12.8051233501       -1.1470845644        1.8402518877
  C        13.8925432309       -0.5083677945        2.4540919095
  C        16.7751743131        1.5195971327        0.0373612382
  C        15.7070790099        0.8259081769       -0.6137117145
  C        15.5978395997        1.1338779769       -2.0747841084
  C        14.9087366951        2.3414993884       -2.4419525274
  C        14.8440189516        2.8323555905       -3.7626441939
  C        15.5359317601        2.1299470870       -4.8385538096
  C        16.2142847420        0.9837184616       -4.4263112473
  C        16.2807089352        0.4811162251       -3.0917484841
  H        16.8311721060       -0.4144667438       -2.9139196124
  H        16.8294921584        0.5062821553       -5.2018313052
  H        15.5281803853        2.4759055634       -5.8455196949
  H        14.2735586743        3.7505167162       -3.8391825659
  H        14.4351562887        2.9032740921       -1.6043591773
  C        17.8578611619        2.0846065787       -0.7396693360
  C        18.9766655486        2.5935716372       -0.1515156499
  H        19.7488947054        2.9723921659       -0.8302195329
  H        17.8085239630        2.0239120264       -1.7970737307
  C        14.0253839066       -0.7174612882        3.9966033796
  C        14.8061722563       -1.7172397438        4.4356229386
  C        14.8636099356       -2.1332690497        5.7184759254
  C        13.8791008593       -1.6151047449        6.6255135627
  C        12.9043343864       -0.6811303086        6.1438554149
  C        13.0381527007       -0.1678154849        4.8634837803
  H        12.3366199451        0.5043736686        4.3869175562
  H        12.1019439166       -0.4445538324        6.7822524647
  H        13.7453367779       -2.1292814608        7.5088467825
  H        15.5662590151       -2.7350462925        6.2389114181
  H        15.5374950841       -2.1338495445        3.7434872484
  C        11.7728276595       -1.8824846833        2.6247654587
  C        10.7655352866       -2.5667282542        1.9616637714
  C        10.5467272097       -2.3527797458        0.5745715999
  C        11.5145914650       -1.7006375400       -0.2048346048
  H        11.3441577103       -1.7423495103       -1.2775804978
  H         9.7065242459       -2.9042778020        0.1903596673
  H         9.9837713103       -3.0707179617        2.5129967096
  H        11.8190861351       -1.9397856845        3.7243699461
  C        13.5145636968       -0.8421259987       -1.9253893285
  C        14.1113786554       -2.0789914405       -2.3578307582
  C        13.9196791738       -2.6603753753       -3.6041761536
  C        13.2116330455       -1.8574160058       -4.5368221722
  C        12.5912021176       -0.6546961508       -4.1248095040
  C        12.8601125205       -0.0694064387       -2.8663518135
  H        12.5666471109        0.9383365143       -2.6055528862
  H        11.9578413362       -0.1517268630       -4.8362335557
  H        12.8891159619       -2.2348338364       -5.5240559952
  H        14.3057585009       -3.6618280031       -3.7673299387
  H        14.6758337818       -2.6262667127       -1.5451462149
  C        11.2826101164        7.4675516975        1.7404399135
  C        10.1784353004        8.1037282520        2.4691195869
  C         9.0759378424        8.6783265684        1.7569446965
  C         7.8775693125        9.1803291905        2.3512910598
  C         6.7531516973        9.5304745387        1.6931327553
  C        10.2519538867        8.4820345253        3.9683657787
  C        11.1685293948        9.3588690517        4.4970091133
  C        11.1768320271        9.7776684558        5.8823132447
  C        10.2798173388        9.1503146720        6.7934392205
  C         9.3086838107        8.2301189868        6.2917416085
  C         9.2472726088        7.9719087352        4.9154379477
  H         7.7697376711        9.2954200567        3.4537079477
  H         5.8760232267        9.8935232893        2.2469298426
  H        11.8452096132        9.9293368482        3.9283202754
  H        11.8473197218       10.5561498052        6.2225030515
  H        10.1784558097        9.6205438395        7.7906970343
  H         8.6535748473        7.7736891107        6.9825733387
  H         8.5668310875        7.2849492219        4.5226426187
  C        11.2428252288        7.5264454114        0.2333662775
  C        12.1651443330        6.7522250185       -0.5729836336
  C        13.2237795964        6.1341631879        0.1215564428
  C        13.2781172123        6.0286292589        1.5229878990
  C        12.2585966966        6.6008645472        2.3658585978
  C         9.1638646172        8.7862141847        0.2791545129
  C        10.2349256005        8.2886063397       -0.4545706943
  C        10.1322286615        8.6047967104       -1.8960397541
  C        10.7858764128        9.7558858383       -2.4339893021
  C        10.7602469288       10.0002559088       -3.8090968673
  C        10.0500455918        9.1464876740       -4.6800715624
  C         9.1964904547        8.1816606741       -4.1402616193
  C         9.3086874284        7.9010922749       -2.7535586609
  H         8.6929129620        7.1244124486       -2.3067122799
  H         8.5478107114        7.5683033677       -4.7221887925
  H        10.0280301435        9.3639210977       -5.7471616675
  H        11.2445898723       10.8745720291       -4.1151125242
  H        11.3456953010       10.2992611663       -1.7072225685
  C         8.0774704945        9.4587600284       -0.3816850852
  C         6.7991174166        9.6401608094        0.1842057829
  H         5.9384843628       10.1238656406       -0.2497305276
  H         8.3116128144        9.6336623186       -1.4306262255
  C        12.1909486342        6.1850541198        3.8537311765
  C        11.1996511466        5.3140665229        4.2522818373
  C        11.1800317285        4.7559893234        5.4976343359
  C        12.1018450924        5.1865552518        6.4139016423
  C        13.0716755887        6.1286406430        6.0930260539
  C        13.1174537341        6.6759754738        4.7829345230
  H        13.8970563731        7.3283103150        4.4157093922
  H        13.7931569177        6.4620803452        6.8090223280
  H        12.1579868134        4.7076778145        7.3945205292
  H        10.4561215645        3.9413547268        5.6730790685
  H        10.4560926745        5.0649279702        3.5189843417
  C        14.3529044897        5.2663175749        2.0439335576
  C        15.3586319887        4.8225892712        1.3044087090
  C        15.3765520085        5.0953944015       -0.0663265447
  C        14.2771276465        5.5626914967       -0.6814763709
  H        14.2185004474        5.7692801491       -1.7273644782
  H        16.2165883508        4.7642433264       -0.6647819190
  H        16.1984507727        4.2782721368        1.6735343054
  H        14.2661004029        5.0806295774        3.1123098549
  C        11.9975017965        6.4313449435       -2.0541923975
  C        11.1504582517        5.3421236354       -2.3973004395
  C        11.0333268594        4.7793202565       -3.6960427012
  C        11.7482194275        5.4343447610       -4.7512223835
  C        12.5704637346        6.4851227146       -4.4550489501
  C        12.7257485522        6.9522114941       -3.1387582048
  H        13.3933520022        7.8537258840       -3.0258849912
  H        13.1529782851        6.9048565687       -5.2160657205
  H        11.5612681715        5.1495780660       -5.7709286443
  H        10.3757874760        3.9317824420       -3.8924843841
  H        10.6272439167        4.8344197587       -1.6274976938
