140

  C        15.1187804815       -0.3885156203        0.5499383268
  C        16.1182759780        0.3299797965        1.2340610355
  C        17.2289732308        0.9079677250        0.6214753904
  C        18.3372451892        1.4969096179        1.3132820403
  C        19.3400911671        2.1489451664        0.6827160686
  C        15.8967072697        0.7032646063        2.7760032392
  C        15.1110223141        1.8266084198        3.0466847266
  C        14.9004366634        2.3894776329        4.2505230571
  C        15.5439346255        1.8140786959        5.4366503602
  C        16.2059052959        0.5879112782        5.2108361276
  C        16.4473682400        0.0137947720        3.8760557115
  H        18.2648561477        1.4792834831        2.4261126112
  H        20.1408398942        2.6170308128        1.2440824559
  H        14.6173242286        2.2889674734        2.2049350797
  H        14.2485745199        3.2432705493        4.3235774132
  H        15.5948279996        2.1623732757        6.4552333740
  H        16.6640878135        0.0918343170        6.0283415114
  H        16.9162855301       -0.9658748554        3.7414435727
  C        15.1569524134       -0.4339623306       -0.9651321703
  C        14.1453442285       -1.1483115713       -1.7079257466
  C        13.0449873408       -1.6331918242       -1.0394085592
  C        13.0612417847       -1.7446576915        0.3890202710
  C        14.0596011756       -1.1115446965        1.2135265220
  C        17.2436199417        0.8944876244       -0.8428981250
  C        16.2551510279        0.2006231801       -1.6013438710
  C        16.3039888031        0.4201476026       -3.0504953670
  C        15.5738362954        1.5135102010       -3.5260997509
  C        15.7335534894        2.0305199144       -4.7802279249
  C        16.6196412357        1.3994257556       -5.6932889222
  C        17.3349028967        0.2861552097       -5.2632574473
  C        17.1156652088       -0.2643138974       -3.9624202698
  H        17.4227509933       -1.2963934573       -3.7687061846
  H        17.9951447026       -0.1283907090       -6.0051713404
  H        16.7228133347        1.7908551386       -6.7335919416
  H        15.0875737792        2.8413041209       -5.1009534479
  H        14.9466175535        2.0249803409       -2.7784098358
  C        18.3129876081        1.6205819042       -1.4283729024
  C        19.3161539263        2.2361614386       -0.7384319034
  H        20.1000159774        2.7931202600       -1.2754643260
  H        18.3842611967        1.6756002848       -2.5332904421
  C        14.0726500544       -1.4577803834        2.6269411557
  C        14.7087173966       -2.5900815436        3.1477934284
  C        14.5122904692       -2.9860970519        4.4517470208
  C        13.6748325782       -2.1767348738        5.2347669273
  C        13.0472493449       -1.0041252994        4.7654173500
  C        13.2012681264       -0.6230443137        3.4846465989
  H        12.6677300209        0.1966027599        3.0539692227
  H        12.4395201881       -0.4284237856        5.4910102372
  H        13.4765069451       -2.4298065123        6.3428345999
  H        15.0221395709       -3.8111219218        4.9367507279
  H        15.3243759436       -3.2197890775        2.5638090416
  C        11.8938502260       -2.3592009577        1.0048458528
  C        10.8249080660       -2.8134806680        0.2768326203
  C        10.7412561069       -2.3856029572       -1.0955297092
  C        11.7955764614       -1.8395517056       -1.7386428047
  H        11.7138955004       -1.6386413560       -2.7835610803
  H         9.8956445225       -2.4958351114       -1.7229730179
  H        10.0903523969       -3.3729775328        0.7913674056
  H        11.8777076286       -2.6265487440        2.0495186606
  C        14.2009375816       -1.5134126637       -3.1451342039
  C        14.7954023026       -2.7263715721       -3.5882696701
  C        14.6299240253       -3.0893830128       -4.9221549950
  C        13.9437218114       -2.2758860600       -5.8478042557
  C        13.3409872879       -1.1089381489       -5.4019578033
  C        13.5361447223       -0.7122765889       -4.1183728152
  H        13.1038832534        0.2604543514       -3.8037758840
  H        12.8400580443       -0.4580148757       -6.0987582445
  H        13.8064827396       -2.6049641221       -6.8495815308
  H        14.9097554428       -4.0987658620       -5.2627113999
  H        15.1523615189       -3.4739373974       -2.8815080539
  C        11.4028903698        6.8167528344        0.5259611085
  C        10.4035950759        7.5017830385        1.2407152992
  C         9.3224610612        8.1426221901        0.5211056479
  C         8.2059202753        8.7256336367        1.2252479447
  C         7.1439116027        9.2512283855        0.4962253230
  C        10.6155955832        7.9196857501        2.6688551011
  C        11.5145652500        8.8739060382        3.1001558142
  C        11.4827027247        9.2346920246        4.4622837325
  C        10.5108792800        8.8172689324        5.3585069820
  C         9.5035020349        7.9593905445        4.8517956905
  C         9.5902788194        7.4581935303        3.5294455903
  H         8.2968660502        8.8589537329        2.2892128559
  H         6.3014313951        9.6395882790        1.0558067785
  H        12.3387611783        9.3403002533        2.5283433478
  H        12.2501768938        9.8211963767        4.8991601093
  H        10.4271739365        9.2331587567        6.3235544879
  H         8.7491184333        7.6682434436        5.5828573151
  H         8.9260875682        6.7225635965        3.1764007971
  C        11.3771536847        6.7933005165       -0.9789857340
  C        12.3737472431        6.2147597121       -1.7004830981
  C        13.4888163801        5.6314779111       -1.0422562558
  C        13.6002288752        5.6529875324        0.3927311468
  C        12.5434090715        6.1954108734        1.1682550612
  C         9.2670140035        8.1416602807       -0.8648186432
  C        10.3455945718        7.5771763391       -1.6363974279
  C        10.4258819207        7.9430936843       -3.1025813218
  C        11.1804805716        9.0150689886       -3.5325649263
  C        11.1812907535        9.4140572988       -4.8592734043
  C        10.3488283928        8.8155898559       -5.7915779556
  C         9.5027506118        7.7812696047       -5.3909585189
  C         9.5880915173        7.3178134643       -4.0762956853
  H         8.9144434780        6.5209460856       -3.7492846362
  H         8.9175279433        7.2668048302       -6.1929150442
  H        10.3467925179        9.1727676193       -6.8629846538
  H        11.8487339691       10.1639637290       -5.2346481029
  H        11.8040097362        9.5479793500       -2.7733844517
  C         8.2721766735        8.8480756542       -1.5792683684
  C         7.1550820675        9.2819130801       -0.9398732264
  H         6.2569578804        9.7888582810       -1.4102050562
  H         8.4838457530        8.8824969462       -2.6774207795
  C        12.5004364394        5.8264848148        2.6489617722
  C        11.7720587185        4.7141449232        3.0856391658
  C        11.6866371845        4.3489363358        4.4286071508
  C        12.4313034750        5.1877010097        5.3287928825
  C        13.1183310141        6.3214325861        4.9061642675
  C        13.2283842884        6.6110409708        3.5480488949
  H        13.7612155692        7.4928553629        3.2080688182
  H        13.6781235121        6.8821937002        5.6411271519
  H        12.3889390129        4.9982311174        6.4056762805
  H        11.1422944094        3.4486493901        4.7940766870
  H        11.3129219587        4.0470908843        2.3385934968
  C        14.6487067931        4.8668686267        0.9811678593
  C        15.6007224538        4.2754124645        0.1596781663
  C        15.5756395968        4.4554337308       -1.1717272939
  C        14.5239165067        5.0768625547       -1.8009900583
  H        14.4500999285        5.0468045483       -2.8363784503
  H        16.2391964769        3.8640706901       -1.7793377002
  H        16.3370141535        3.6101002022        0.6222086014
  H        14.6093370325        4.8271577110        2.0247672346
  C        12.1339873414        5.8474729320       -3.2170855841
  C        11.2965009878        4.7821493992       -3.5674603806
  C        11.3483025724        4.2573617734       -4.8604236766
  C        12.1677012305        4.8417320794       -5.8660873351
  C        13.1045349040        5.7970013738       -5.4352790811
  C        13.1093866669        6.3291136522       -4.1531846439
  H        13.9101890938        7.0750955758       -3.9087671729
  H        13.9059985279        6.0444418776       -6.1596369235
  H        12.0759053798        4.3231730109       -6.7891531094
  H        10.7051275593        3.4466829873       -5.0509815373
  H        10.6076990859        4.2980523372       -2.8209137908
