140

  C        14.1432354222        0.1550275720        1.2762843876
  C        15.1605150857        0.8968750814        1.9541591475
  C        16.2220373212        1.4683257881        1.2328378830
  C        17.3041372322        2.1752432494        1.8143268778
  C        18.2506541027        2.8056587097        1.1333663214
  C        15.1534889701        1.2298458208        3.4758231431
  C        14.4689871188        2.4645856307        3.8651188311
  C        14.5286402914        2.7788076329        5.2262783110
  C        15.3789170947        2.1173207209        6.0613565773
  C        16.1762592544        1.0023520967        5.6118448862
  C        16.0645025428        0.5962911665        4.2869843942
  H        17.4653962956        2.0814471864        2.9121677574
  H        19.1185176535        3.2599539232        1.5726553474
  H        13.9414439247        3.0431858739        3.1115610256
  H        14.0529862876        3.6778222655        5.6296413977
  H        15.4703383564        2.4221000539        7.0843393743
  H        16.8517492313        0.4512384249        6.2925579611
  H        16.6649374451       -0.1719325463        3.8850765845
  C        14.0911056971        0.1933981175       -0.2249940932
  C        13.1190538300       -0.5157988939       -0.9738935107
  C        11.9970299361       -1.0220474434       -0.2423701361
  C        11.9643336306       -1.0148172241        1.2489315656
  C        13.1122760499       -0.5321725678        1.9684390852
  C        16.1822083369        1.5613045566       -0.2615611199
  C        15.0725339558        0.9487908294       -0.8938932203
  C        15.0188082078        1.3239451357       -2.3378097831
  C        14.3071303490        2.4746761580       -2.7861489286
  C        14.2418810972        2.8344925302       -4.1544368513
  C        15.0674189381        2.1340279822       -5.0458702833
  C        15.8877192028        1.0863258707       -4.6587965427
  C        15.7968177877        0.6510272026       -3.3067021857
  H        16.3519867971       -0.1832421248       -2.8890900040
  H        16.5555058788        0.5372317819       -5.3725546440
  H        15.1025919530        2.3228013820       -6.1070967445
  H        13.6291690865        3.6886282801       -4.4620514753
  H        13.8922422003        3.1181717408       -2.0045962102
  C        17.1874189107        2.3632897341       -0.9343041016
  C        18.1755063614        2.9377855910       -0.2253893847
  H        18.9384549296        3.5659895232       -0.6798853972
  H        17.0827254571        2.4454420486       -2.0082656092
  C        13.2045239024       -0.9855108869        3.4063593021
  C        14.0508472464       -2.0753036106        3.7877708550
  C        13.8834932521       -2.6194019279        5.0523991875
  C        12.8837930033       -2.2035847148        6.0082036458
  C        12.0157495694       -1.1936521733        5.6119887129
  C        12.2282943048       -0.5740377017        4.3379047047
  H        11.5458171630        0.1443059072        4.0770171448
  H        11.2131281425       -0.7782940695        6.1335271011
  H        12.9498468096       -2.5685798891        7.0485536343
  H        14.6205556370       -3.4091127948        5.3714432260
  H        14.6727202384       -2.4940207297        3.0085508490
  C        10.8211969841       -1.5626910082        1.8438665803
  C         9.7520080564       -2.0880713611        1.1331783444
  C         9.7531063776       -2.1235910362       -0.2569425580
  C        10.8818126774       -1.6388942787       -0.8454316369
  H        10.8246506490       -1.6461778325       -1.9676329041
  H         8.9082745705       -2.6497805054       -0.7501127988
  H         8.9447257887       -2.5545566142        1.6186459245
  H        10.6728082873       -1.5210004562        2.9478303643
  C        13.2015223958       -0.8168656203       -2.4179675786
  C        13.7592706626       -2.0628217109       -2.8020678775
  C        13.8426824534       -2.4590479296       -4.1654709642
  C        13.0767416693       -1.7434026588       -5.1031403402
  C        12.3307096188       -0.5551322228       -4.7343198709
  C        12.3993798752       -0.1256257737       -3.4031316196
  H        11.7880242626        0.7141545738       -3.1154957250
  H        11.7708933702        0.0432074733       -5.4401856013
  H        12.9671964376       -2.1433264843       -6.1211891985
  H        14.4802430365       -3.3055008558       -4.3406887865
  H        14.2937157541       -2.6603376243       -1.9946075742
  C        10.6526852991        7.3624862828        1.2387069708
  C         9.5166879020        7.9595742088        1.8924186680
  C         8.4170743846        8.5543040893        1.1418587117
  C         7.2390175720        9.0266522829        1.7644493137
  C         6.3528269779        9.5927207595        0.9149677804
  C         9.5124661380        8.2918197156        3.3139652413
  C        10.2790052821        9.3215725126        3.8300320342
  C        10.2295344376        9.6241932297        5.1847766490
  C         9.3338416694        8.8656426659        6.0266173129
  C         8.5545003244        7.8336176585        5.5347626995
  C         8.7237315395        7.5002225030        4.1649325470
  H         7.0115067797        8.8930968053        2.7786809752
  H         5.4188688787        9.8777938336        1.3557690226
  H        10.6947101416       10.0279898880        3.1453770592
  H        10.8145821041       10.3996074926        5.6790151798
  H         9.2948203683        9.1660040727        7.0713703065
  H         7.8703555880        7.2553277987        6.1197217246
  H         8.0224806843        6.8396129729        3.6443394534
  C        10.6420458685        7.3082605548       -0.3063859951
  C        11.6639304613        6.5884019774       -1.0115584662
  C        12.7506986332        6.1029059917       -0.2550217419
  C        12.7493302826        6.0655529968        1.2948978288
  C        11.6083104030        6.6088198891        1.9198638245
  C         8.5773513117        8.6032691038       -0.2994069400
  C         9.5737276537        8.0041369944       -0.9939632388
  C         9.6351836339        8.3871389799       -2.4487169584
  C        10.3334626334        9.6444922180       -2.7195100868
  C        10.3810543824       10.1723997358       -4.0464623614
  C         9.7974710379        9.4648984837       -5.0713885424
  C         9.0146513946        8.3326441261       -4.7560540741
  C         8.8962143815        7.7536540193       -3.4476844911
  H         8.2921684112        6.8716178150       -3.3094394778
  H         8.4578080363        7.8376942586       -5.5195447788
  H         9.9498030487        9.7608708001       -6.1335354129
  H        10.9756241756       11.1253543707       -4.1622547019
  H        10.7937374922       10.1666395809       -1.9245610631
  C         7.5164655296        9.2841090363       -1.0924652634
  C         6.4500317549        9.8009493497       -0.4653795575
  H         5.6910285722       10.4824330930       -0.8607611538
  H         7.6587500575        9.5098865426       -2.1607839057
  C        11.4854821864        6.2282961115        3.4516744535
  C        10.7319993531        5.1252489173        3.8286536027
  C        10.8001040661        4.5431104300        5.0980736958
  C        11.6769329012        5.1249718260        6.0499712143
  C        12.4926542845        6.1527193466        5.6367666987
  C        12.3906805968        6.7200520816        4.3800223653
  H        13.2009458660        7.4034911009        4.1503790119
  H        13.2148530136        6.4384362430        6.3781982713
  H        11.7052376861        4.7824861101        7.0980489916
  H        10.1026975614        3.7214714788        5.3852359547
  H        10.0682621208        4.7400851570        3.0398502267
  C        13.8286542675        5.3287615883        1.9236620712
  C        14.8959322063        4.9396224448        1.1949042462
  C        14.9549122557        5.1283466399       -0.1652664230
  C        13.8869060219        5.6206870498       -0.8973743997
  H        13.9710634335        5.8413045407       -1.9751243554
  H        15.9441538034        4.9314981282       -0.6002731366
  H        15.7148621733        4.3852398649        1.6715271729
  H        13.9976794550        5.1537165064        2.9697780634
  C        11.6293592926        6.2988234311       -2.4792166594
  C        10.6300355626        5.3221584076       -2.9002899182
  C        10.6019946007        4.9277971144       -4.2377499936
  C        11.4321900607        5.4968223510       -5.1984504626
  C        12.4085500366        6.4412320464       -4.7798484782
  C        12.4320831693        6.8579193257       -3.4802176722
  H        13.0713926450        7.6666277658       -3.2785245745
  H        13.0673472800        6.8295045296       -5.5224048045
  H        11.3330245147        5.1626604466       -6.2404516205
  H         9.9157361846        4.1526607055       -4.5261635641
  H        10.1380928580        4.8116291623       -2.0717868008
