140

  C        14.4765305572       -0.0048504565        1.2580309895
  C        15.5358574664        0.7350930086        1.8754867145
  C        16.6012403473        1.3089277028        1.1265081784
  C        17.7305191656        1.7566709711        1.8248019736
  C        18.8649494899        2.2859948132        1.1802890020
  C        15.4599532410        1.0789845563        3.2801982414
  C        14.5766184103        2.0883067339        3.6883364295
  C        14.5112879443        2.6225967392        5.0131101374
  C        15.3443523403        2.1236709460        6.0005159762
  C        16.1243701056        0.9907149164        5.6520409219
  C        16.2558784080        0.5490590160        4.3252911559
  H        17.7971690924        1.6952644402        2.9275295495
  H        19.8195779882        2.6427646730        1.6033699052
  H        13.8936621005        2.4493546284        2.9012201030
  H        13.8813806341        3.4784697138        5.1518509963
  H        15.3390040865        2.5421645117        7.0425903965
  H        16.8636735084        0.5137396991        6.2875124609
  H        16.9813693154       -0.2958000183        4.1980545876
  C        14.4211039233        0.0543605545       -0.1879289032
  C        13.4314854144       -0.7160997521       -0.9006580584
  C        12.4169824650       -1.2702219914       -0.1668420251
  C        12.3734132663       -1.2674654620        1.3193513340
  C        13.5097521489       -0.8030386782        2.0239646024
  C        16.5713464619        1.3567846500       -0.3289613878
  C        15.4004236782        0.8208857566       -0.9511649605
  C        15.3125199297        1.3745266231       -2.4157511708
  C        14.5655618133        2.5032862132       -2.8395242813
  C        14.5998067096        2.9339232696       -4.1929756373
  C        15.4059207337        2.2393267903       -5.1929380205
  C        16.2531653597        1.2075347007       -4.7130843536
  C        16.1600779368        0.7996049066       -3.3688691321
  H        16.7182920024       -0.1031072485       -3.0853034925
  H        16.8401697443        0.5712861022       -5.3623571365
  H        15.2352023454        2.3748878790       -6.2622855258
  H        13.8925667457        3.7548626387       -4.4188826976
  H        13.9325836338        3.1021757092       -2.1918220233
  C        17.6174083284        2.1512994243       -0.9408785267
  C        18.7164539827        2.5285162984       -0.2278082985
  H        19.5809506680        3.0035346166       -0.7371858665
  H        17.6836829547        2.2986079209       -2.0488241797
  C        13.5321002252       -1.1239661263        3.5032722167
  C        14.2046023824       -2.2251112182        3.9813739059
  C        14.1141227520       -2.6823189337        5.3159500171
  C        13.2410465512       -1.9648681538        6.1421790888
  C        12.3728303016       -0.9803997725        5.6407846240
  C        12.6023330227       -0.4988212817        4.3522835055
  H        12.0894000742        0.3236469528        3.9094305543
  H        11.5360018656       -0.6734790575        6.1948906339
  H        12.9562554160       -2.3155580817        7.1767389413
  H        14.6365313889       -3.5891506698        5.6028646525
  H        14.9097754894       -2.7217591777        3.3617890691
  C        11.3891001905       -1.9818703002        2.0604460617
  C        10.3736321087       -2.5442969112        1.3807440487
  C        10.2932701606       -2.4651351255       -0.0695978038
  C        11.2557281312       -1.8306334041       -0.7688188211
  H        11.0885960489       -1.8366287103       -1.8451764696
  H         9.3249533223       -2.7744684270       -0.4619256145
  H         9.5534892050       -3.0639870696        1.9279503830
  H        11.3658911435       -1.9233836512        3.1416376121
  C        13.3900547702       -0.9912834720       -2.3905131969
  C        13.9365338060       -2.2049565971       -2.8527900219
  C        13.8247505535       -2.5852337914       -4.1720648659
  C        13.0360630544       -1.8258391444       -5.0560501424
  C        12.3848583490       -0.6491292522       -4.6100401052
  C        12.5813139913       -0.2311758871       -3.2815023546
  H        12.2238889275        0.6797888725       -2.7953012517
  H        12.0718027836        0.0933904401       -5.3712905565
  H        12.8615999942       -2.1581070848       -6.0855185796
  H        14.2799211464       -3.4884994211       -4.4068798762
  H        14.4368354408       -2.8689687239       -2.1952996873
  C        10.8320780783        7.2534771522        1.0990980970
  C         9.7694335778        7.9818498757        1.7053379467
  C         8.7749286357        8.6157660820        0.9573536954
  C         7.5834165855        9.1881276598        1.6102782971
  C         6.6259278626        9.8717676965        0.8908161810
  C         9.7964193591        8.3283256380        3.1069931039
  C        10.7021279870        9.3590039002        3.5270576476
  C        10.7748821050        9.6775676361        4.8907907974
  C         9.9805727123        9.0717599807        5.8030697163
  C         9.0133676938        8.1642959505        5.4009905446
  C         8.9687615918        7.7232772988        4.0710935503
  H         7.4384335218        9.1703292839        2.7339433292
  H         5.7523861877       10.3490528718        1.3498819815
  H        11.2881212386        9.9363402882        2.8244255292
  H        11.4748134514       10.4918473768        5.0876472504
  H        10.0039332345        9.2296056769        6.8202785161
  H         8.3008941168        7.7538973963        6.0434024065
  H         8.1973239571        6.9261840064        3.8552801904
  C        10.9923050275        7.3390191444       -0.4070447283
  C        11.9926419157        6.6252029083       -1.0756177094
  C        13.0410995295        6.0203175146       -0.2479919509
  C        12.9169534417        6.0579697354        1.2090885101
  C        11.7966347451        6.6328215124        1.8997843525
  C         8.8704911581        8.6442306118       -0.4320179114
  C         9.9590631210        8.0993379352       -1.0950439552
  C        10.0856821313        8.5692160651       -2.5634700405
  C        10.6431666930        9.8507136887       -2.6616030202
  C        10.5834041997       10.5239203301       -3.8703169085
  C         9.9450878821        9.9407038111       -5.0083279665
  C         9.3143642365        8.6647251431       -4.8795381296
  C         9.3999017217        8.0113731143       -3.6359196887
  H         8.8092507362        7.1719496942       -3.3733622422
  H         8.5827351443        8.3297798951       -5.6547209726
  H         9.8847604175       10.5986531376       -5.9720182171
  H        11.0199539890       11.5014827272       -3.9430296235
  H        11.1226836830       10.2102848316       -1.7748705544
  C         7.8310188592        9.3623363713       -1.1753749370
  C         6.7480467753        9.9834359842       -0.5320665294
  H         6.0324572433       10.5810183284       -1.1713661455
  H         7.7501207131        9.3781101216       -2.2382069114
  C        11.6832267142        6.2841045186        3.3623977269
  C        10.8842984087        5.2041490159        3.7950642832
  C        10.9424605940        4.8256857389        5.1804580592
  C        11.8012421476        5.4433383451        6.0436942986
  C        12.6508652341        6.4776273205        5.5697312965
  C        12.5357087666        6.9346553064        4.2839326004
  H        13.1878565208        7.6848601497        3.8923027939
  H        13.4107660899        6.9059083015        6.2303950143
  H        11.7820654934        5.0495703367        7.0507359516
  H        10.3253740653        4.0368339054        5.6379569951
  H        10.1783494352        4.7188984494        3.1609762326
  C        14.0347792040        5.3419243595        1.8219758906
  C        15.1123932840        4.7331143704        1.0865263177
  C        15.2372816592        4.8395091021       -0.3640288814
  C        14.2015350219        5.4621208788       -0.9433928754
  H        14.1231716872        5.5593810188       -2.0420252195
  H        16.1645892874        4.6107708139       -0.9903678607
  H        15.9411060452        4.2446907752        1.6242994525
  H        14.0698946033        5.3292249543        2.9192788480
  C        11.9165321666        6.3125577230       -2.4612544902
  C        10.8789165011        5.4275656720       -2.9422043729
  C        10.8216317462        4.9868212318       -4.2883134053
  C        11.7395144456        5.4985292563       -5.1999191202
  C        12.8064446312        6.2844427685       -4.7054943383
  C        12.8890028689        6.6815962157       -3.3806708007
  H        13.7463201515        7.3148360739       -3.0517736862
  H        13.5373736784        6.5524160512       -5.4993420898
  H        11.7488240801        5.3775793699       -6.3212455454
  H         9.9454646127        4.3707781799       -4.4316671019
  H        10.2529404411        4.9133625256       -2.1978960947
