140

  C         4.7381970379       -1.3075788503       13.8585559295
  C         5.7325441496       -0.5850523514       14.5691685341
  C         6.9321594514       -0.1596892768       13.9171719954
  C         7.8799419643        0.6370770918       14.6661334744
  C         8.9818746808        1.1935176501       14.0316237028
  C         5.7379426658       -0.1885018377       16.0641117010
  C         4.8696450582        0.8405883918       16.4565336778
  C         4.9472934683        1.3097358194       17.7623763101
  C         5.8453029514        0.7483004377       18.7073740844
  C         6.7665831639       -0.2082100464       18.2529537538
  C         6.6686057241       -0.6987907618       16.9690624282
  H         7.5628164601        0.7886146947       15.6575337566
  H         9.7125204567        1.6827623934       14.6370845804
  H         4.2157072442        1.2898538681       15.7507256626
  H         4.3619054725        2.1636737384       18.2368531308
  H         5.8820605720        1.1829846996       19.6835442243
  H         7.3948015636       -0.6416216220       18.9296214561
  H         7.3209356702       -1.4952242576       16.6941594872
  C         4.7610695998       -1.2900554558       12.3571469132
  C         3.6616514972       -1.8407727460       11.6686818924
  C         2.6553512410       -2.4927629407       12.3725818793
  C         2.6136522095       -2.6190976031       13.7456232799
  C         3.6761962321       -2.0833454146       14.5308961150
  C         6.9337290295       -0.0670405171       12.4677764594
  C         5.8219987755       -0.5635698905       11.7157763842
  C         5.8121351449       -0.2071925303       10.2623311019
  C         5.1203320857        0.9589735940        9.8699701485
  C         5.2016544592        1.4962473214        8.6227266515
  C         6.0308817028        0.8962406702        7.6437063670
  C         6.5675193769       -0.4096190215        7.9116774418
  C         6.5464965953       -0.8774582831        9.2549562381
  H         7.0993068905       -1.7938290313        9.4825259912
  H         7.0796266576       -0.8851310159        7.1213863302
  H         6.0447364080        1.3859324045        6.6309304406
  H         4.6652530458        2.3861036550        8.4199224047
  H         4.5818168190        1.4247125803       10.6741486812
  C         8.0568181905        0.5921645879       11.8739862260
  C         9.1008939595        1.0486675991       12.6077665153
  H         9.9125526376        1.5611804470       12.0751742787
  H         8.1107186941        0.5190019734       10.7759776016
  C         3.7111787200       -2.3076767174       15.9903431476
  C         4.6494589776       -3.1808553009       16.5343266529
  C         4.6488958311       -3.4346657661       17.9111101746
  C         3.5690937893       -2.9940941259       18.6964659757
  C         2.7093374142       -1.9904382246       18.2009914989
  C         2.7518835502       -1.6863429678       16.8430102265
  H         2.2198155254       -0.7992937490       16.5673586447
  H         2.0551242872       -1.4687285259       18.9131107762
  H         3.5285019335       -3.2789869526       19.7782776638
  H         5.4677781792       -4.0466391265       18.3866556732
  H         5.4643239087       -3.6536379710       15.8707073756
  C         1.5495510276       -3.3767317073       14.4349664470
  C         0.6204770789       -4.0408654310       13.6102407231
  C         0.7152238091       -3.9546344827       12.1981882046
  C         1.6781041438       -3.1656604229       11.5865580435
  H         1.7689346882       -3.0840347107       10.5386280671
  H        -0.0770114729       -4.4228933443       11.6534352183
  H        -0.1831781935       -4.6126267734       14.0814664481
  H         1.5117863553       -3.2756237992       15.5431524291
  C         3.6604495427       -2.1575468243       10.1954562866
  C         4.4919411753       -3.2839494326        9.8236934439
  C         4.4766827055       -3.6948684663        8.5037875538
  C         3.6423436973       -3.1262386063        7.4884517672
  C         2.9364835752       -1.9774529168        7.8742419048
  C         2.9658011222       -1.5073722063        9.1742004196
  H         2.4563210091       -0.5822926017        9.4528823772
  H         2.3195002920       -1.4166501063        7.1585175060
  H         3.5650685641       -3.5973282492        6.5156264453
  H         5.0789676332       -4.5956587268        8.1580519385
  H         5.2626168830       -3.6805090337       10.5072282098
  C         1.1433702422        5.9265372439       14.0066366849
  C         0.1155697036        6.6802727920       14.6142395231
  C        -0.9510161992        7.2302951024       13.8556564757
  C        -2.1391350722        7.8995576359       14.4579096245
  C        -3.1589203016        8.3579245015       13.6581028725
  C        -0.0065833721        7.0413164150       16.0391269839
  C         0.6912048518        8.1169323091       16.6049885274
  C         0.6163317553        8.5673513509       17.9141365989
  C        -0.1840539576        7.8786035997       18.8036831947
  C        -0.7111002413        6.6508231398       18.4174058541
  C        -0.7089246071        6.2825755192       17.0323896907
  H        -2.2717570179        8.0428743251       15.5259978823
  H        -4.0376955729        8.8315668607       14.0723551826
  H         1.2565001891        8.8133103644       16.0212162517
  H         1.0640121087        9.5148451781       18.2091366581
  H        -0.3032079499        8.1281610088       19.8056366983
  H        -1.3179597479        6.0159794960       19.0653850242
  H        -1.0315838850        5.3003995773       16.7334172816
  C         1.1593690804        5.8234628531       12.5063789822
  C         2.1898605262        4.9971527319       11.9390554538
  C         3.3076604849        4.4789530213       12.6496360384
  C         3.2309521030        4.5470440740       14.1035590706
  C         2.1691163899        5.2029367710       14.7499483514
  C        -0.9160217605        7.1064278813       12.3960369075
  C         0.1182480222        6.4584227307       11.7585261854
  C         0.2867695948        6.7955269556       10.2754733590
  C         1.3112600973        7.7136732991        9.8629886189
  C         1.2579500319        8.3132780350        8.5950817726
  C         0.1692140871        7.9622572276        7.7310922646
  C        -0.7411322918        6.9395408976        8.0778854503
  C        -0.6660413725        6.3558840466        9.3641853596
  H        -1.3077134870        5.5650568577        9.6923337160
  H        -1.3955878944        6.6047658632        7.2886126149
  H         0.0785977362        8.3809761635        6.7276077919
  H         1.9992060661        8.9909842374        8.1732461944
  H         2.1578897757        7.9280337649       10.5709097486
  C        -1.9483691799        7.7803586222       11.6270053020
  C        -3.0322727444        8.3115617935       12.2403302364
  H        -3.7711048569        8.7892317658       11.6755651544
  H        -1.8241023422        8.0238425712       10.5921639865
  C         1.9664660676        4.8587494828       16.2213152804
  C         1.1167429574        3.7907684232       16.5825280323
  C         1.1998397600        3.3155730845       17.9162504991
  C         1.9910314673        3.9694149809       18.8722049310
  C         2.7758678801        5.0889573200       18.5313285059
  C         2.8167621726        5.4570784251       17.1657210849
  H         3.3026738431        6.4375754331       16.9899325200
  H         3.4797234962        5.5613586220       19.2476240046
  H         1.9111168193        3.6002613608       19.9150075991
  H         0.5802362344        2.4765936466       18.2049572158
  H         0.5360751649        3.2611020058       15.8365370475
  C         4.2383166942        3.8388697330       14.8349450413
  C         5.3591452236        3.2859474948       14.1878808465
  C         5.4243852665        3.2764727039       12.7310471159
  C         4.4264978288        3.8696163136       11.9762362611
  H         4.3231192196        3.6458043513       10.8763291783
  H         6.2589708710        2.8070757785       12.2206256596
  H         6.0315082960        2.7765232862       14.8418914728
  H         4.1514271928        3.7318582947       15.9086231012
  C         2.0239587865        4.5831295026       10.4851221906
  C         1.1226991515        3.6520263733       10.0788088411
  C         1.0143050741        3.3109387844        8.7394202274
  C         1.7972476581        3.9662429968        7.7907360302
  C         2.7940986488        4.8661055332        8.2246198058
  C         2.8759144437        5.1676633242        9.5535131923
  H         3.5408014221        6.0135777717        9.8930695670
  H         3.5556731971        5.3910704768        7.5884985929
  H         1.5249959822        3.8418779394        6.7377716208
  H         0.3415446486        2.5058980966        8.5161535894
  H         0.4705496609        3.1391875512       10.7554814277
