140

  C        14.6453758776       -0.1897396298        0.5691013008
  C        15.6630692565        0.5440825998        1.2258495524
  C        16.8430039548        0.9153342747        0.5910009283
  C        17.9609431707        1.5075893050        1.2611786368
  C        19.1081311296        1.8979422436        0.6217427536
  C        15.5458222906        0.9985978803        2.6619209685
  C        14.6811766117        2.0821608717        2.9754070907
  C        14.6235657309        2.5665872513        4.3339136419
  C        15.5102088270        2.0667348426        5.3379562346
  C        16.2436003499        0.9211022188        4.9556269251
  C        16.2912480955        0.4304614398        3.6691537003
  H        17.9606871738        1.6359609318        2.3713770229
  H        19.9273596911        2.2733997906        1.2038727035
  H        14.1633780842        2.6052043921        2.2234047220
  H        14.0794858761        3.5017219976        4.3596948196
  H        15.5105016881        2.3345263112        6.3448722899
  H        16.9590902756        0.5890396831        5.7516019024
  H        16.9359711567       -0.4229384054        3.4440801766
  C        14.7323649149       -0.3349883017       -0.8930911241
  C        13.7815515745       -1.1725758267       -1.5840552332
  C        12.6483296058       -1.7419322427       -0.8896132452
  C        12.5838461702       -1.6311919479        0.5879514677
  C        13.6799793672       -0.9699216078        1.2562591449
  C        16.9215300025        0.8314501733       -0.8776241522
  C        15.8081804397        0.3470025329       -1.6040389697
  C        15.6775505316        0.6916749185       -3.0546622633
  C        14.6865549367        1.5448363620       -3.4646856491
  C        14.6819437015        1.9651400250       -4.7901536199
  C        15.6032932061        1.4935178698       -5.7477943542
  C        16.7338268133        0.7664956390       -5.3086210621
  C        16.7600626789        0.3870558271       -3.9444640211
  H        17.6111668583       -0.2045888960       -3.6424490835
  H        17.4860379609        0.4808550935       -6.0432462257
  H        15.5313530298        1.8283076795       -6.7825536398
  H        13.9683718489        2.7689018121       -4.9593587424
  H        14.0003877555        1.9154606003       -2.6876430179
  C        18.0141733862        1.5337001618       -1.5502060312
  C        18.9950034751        2.1550259449       -0.8005335880
  H        19.8183078626        2.7170879581       -1.3175764050
  H        17.8776028975        1.7255799625       -2.6300748100
  C        13.7951259560       -1.3821797944        2.7264127646
  C        14.6490320317       -2.4933381385        3.1137437845
  C        14.6837468966       -2.9748394158        4.4614903141
  C        13.9206158964       -2.3774938500        5.3823576028
  C        13.1080734031       -1.2738889744        5.0436437754
  C        13.0593230927       -0.8006691071        3.7232063083
  H        12.3358666962        0.0358664615        3.5631195050
  H        12.4923958399       -0.7916514778        5.8155747229
  H        13.8722882008       -2.7391974880        6.4893662928
  H        15.3683251087       -3.8235202085        4.5903281140
  H        15.3556275846       -2.9058099819        2.4188130641
  C        11.4763844362       -2.3552490575        1.2357043334
  C        10.4531707649       -2.9436905211        0.5146354735
  C        10.5659313434       -3.0690630796       -0.8865445656
  C        11.6542975146       -2.5415201305       -1.5377366400
  H        11.5943109808       -2.6616208141       -2.6186197975
  H         9.7727974665       -3.5204531242       -1.4313073282
  H         9.7006690422       -3.3954040098        1.1235247520
  H        11.4102410979       -2.3299274718        2.3071154119
  C        13.9131525619       -1.5502571406       -3.0352872920
  C        14.8928630882       -2.4363876485       -3.5186619347
  C        14.9475278410       -2.8087423808       -4.8648393777
  C        14.0497911384       -2.3151125026       -5.7506784291
  C        13.0331971702       -1.4462059970       -5.3205352449
  C        12.9377135193       -1.0980846268       -3.9636530423
  H        12.2523514901       -0.2686710379       -3.7103980805
  H        12.4277167143       -0.9565103213       -6.0832892535
  H        14.0833869313       -2.6215023175       -6.7758769890
  H        15.7474541219       -3.5126969127       -5.2228941117
  H        15.6640560997       -2.8881394015       -2.9031852067
  C        11.2876054882        6.6156532961        0.5594062686
  C        10.3056918892        7.3626653327        1.2474202914
  C         9.2072639066        7.8415673876        0.5919934479
  C         8.1986555282        8.5982269505        1.1707493833
  C         7.1333294600        9.1604381500        0.4429293077
  C        10.3622462384        7.7587551614        2.7242654794
  C        11.0574391950        8.9429190620        3.1128967819
  C        10.8138930216        9.4650384647        4.4284791874
  C         9.9857088620        8.7269387055        5.3311569151
  C         9.4399566971        7.4561601260        4.9234260694
  C         9.5622465588        7.0358841362        3.6289304380
  H         8.2354425685        8.6029423949        2.2485400016
  H         6.4201112234        9.7765831795        0.9481111146
  H        11.5777445335        9.4524170689        2.3080123909
  H        11.2961887167       10.3382908216        4.7624314931
  H         9.7604546301        9.0404743064        6.3395422130
  H         8.9022387814        6.8777285797        5.6841880365
  H         8.9869503458        6.2185947429        3.2643956419
  C        11.3557543656        6.6715797238       -1.0009736878
  C        12.4295818471        6.0311331200       -1.6856772153
  C        13.5694577496        5.5689235603       -0.9593407726
  C        13.5885378914        5.6150096996        0.4983405152
  C        12.4821136399        6.0138623910        1.2130528293
  C         9.1992959352        7.7744065282       -0.9108142341
  C        10.2962571985        7.2709690881       -1.6700584178
  C        10.3706673087        7.6491764164       -3.1317106159
  C        11.4431539539        8.4318610777       -3.5272277439
  C        11.3878733575        8.9288901065       -4.8332995784
  C        10.4147132793        8.5596350497       -5.7059658982
  C         9.3228714186        7.8320310040       -5.2773671905
  C         9.3607969053        7.3018219380       -3.9982502713
  H         8.5624426480        6.6572830900       -3.6750753901
  H         8.4691979038        7.6859355391       -6.0025695125
  H        10.3140246377        8.9759376143       -6.7021646161
  H        12.1981984033        9.6221575672       -5.2155392483
  H        12.2351469432        8.6114917410       -2.7701894860
  C         8.1010830463        8.4516293894       -1.6363100988
  C         7.0958432804        9.1395584090       -0.9464058457
  H         6.4106641785        9.7868500490       -1.5365075885
  H         8.1324096856        8.2871037833       -2.7883791616
  C        12.3671268596        5.6613043394        2.6299716905
  C        11.6730161740        4.5215605449        3.0115927622
  C        11.6452273920        3.9880709270        4.3137352424
  C        12.2607913830        4.7256137740        5.3375996899
  C        12.9788818701        5.8795137723        4.9488888164
  C        12.9992000760        6.3863059565        3.6422829921
  H        13.4631639287        7.3538403962        3.4603264666
  H        13.4644703334        6.4142751067        5.7621996196
  H        12.1302888608        4.5852986926        6.4159048125
  H        11.0653935740        3.0691390726        4.5041461072
  H        11.0100941195        4.0721303154        2.2514725230
  C        14.6908079936        5.0117966576        1.2076123927
  C        15.7193793246        4.4105295866        0.4962474615
  C        15.6777289143        4.3095727870       -0.8641460097
  C        14.6346120591        4.8564733023       -1.5778723227
  H        14.6277527845        4.7738004348       -2.6125180556
  H        16.4114222297        3.6719341241       -1.3076858124
  H        16.5841199549        4.0553004328        1.0546040211
  H        14.6886867085        5.1261538399        2.2542583920
  C        12.3100612398        5.6689458452       -3.0990703675
  C        11.1769251904        4.8687143602       -3.3938117231
  C        10.9798644958        4.3390646795       -4.6535306522
  C        11.9236119081        4.5252405856       -5.6800890718
  C        13.1457035513        5.2139788159       -5.3027759201
  C        13.2975060641        5.8524474970       -4.1058782858
  H        14.2182294746        6.5155751447       -4.1422416911
  H        13.8787356438        5.4313916752       -6.0939356775
  H        11.8188854367        4.2496688568       -6.7010331778
  H         9.9867555833        3.7967810601       -4.9467835400
  H        10.5304452774        4.7683965496       -2.5398861083
