140

  C        15.6829782513       -0.2758586888        2.5455165530
  C        16.6185651965        0.5686688906        3.2321749883
  C        17.6562364703        1.1634036766        2.5741054555
  C        18.7784498604        1.7509284532        3.3006528347
  C        19.8023874733        2.2687334988        2.6010045731
  C        16.5217879802        0.7956839603        4.6885351747
  C        16.0617212303        2.0641169647        5.0916022097
  C        16.0428699099        2.3864915529        6.4984777325
  C        16.5254002195        1.4675192658        7.3988155328
  C        17.0316532017        0.2204038181        6.9561806252
  C        17.0134065288       -0.1435473022        5.5827069717
  H        18.7624962937        1.7182379030        4.3831198567
  H        20.6273848566        2.6080955243        3.1782394037
  H        15.6237291025        2.7471818094        4.3566919540
  H        15.5280750773        3.2890829923        6.8019139354
  H        16.7115442166        1.7669583978        8.4453173101
  H        17.3773525598       -0.5500008688        7.6930628650
  H        17.4197026791       -1.0534149348        5.2193583472
  C        15.6981374029       -0.3140998184        1.0418567264
  C        14.6502463187       -0.9117085929        0.3475845028
  C        13.5660312282       -1.5090539279        1.1101425072
  C        13.5564671776       -1.4873431042        2.5294943876
  C        14.6441214605       -0.9418480263        3.2698259390
  C        17.6693811814        1.1666944995        1.0837855881
  C        16.6827054859        0.5502448890        0.3380809064
  C        16.5281749824        0.8655662278       -1.1071828093
  C        15.9401741645        2.0108184006       -1.6350662951
  C        15.9836750884        2.3094707231       -3.0768262747
  C        16.6769731607        1.4834430506       -3.9573455048
  C        17.4876757676        0.4871228565       -3.3627627032
  C        17.3374580500        0.0893152683       -2.0606506440
  H        17.8193891821       -0.7936312389       -1.6779230078
  H        18.1220909965       -0.1035080006       -4.0112257496
  H        16.7450210831        1.8162247452       -4.9442797328
  H        15.5272341117        3.2515990050       -3.3475445996
  H        15.3496575179        2.6741070188       -0.9611209808
  C        18.7659865079        1.8526757025        0.4629798342
  C        19.8179519634        2.3446638556        1.2196775480
  H        20.5114307769        3.0452826686        0.8303658889
  H        18.6744529375        1.9720542164       -0.6276358579
  C        14.6144035898       -1.3085184272        4.7182171031
  C        15.1338392820       -2.5450798376        5.1147405561
  C        14.7876338508       -3.1477147528        6.3515480780
  C        13.9412129722       -2.4065317486        7.1990705660
  C        13.4665917985       -1.1515545786        6.8253806152
  C        13.7551213003       -0.6578553910        5.5577922769
  H        13.3992753364        0.4064176968        5.4500745859
  H        12.8955979628       -0.5835525899        7.6381565528
  H        13.6085880235       -2.7810781148        8.1729185181
  H        15.0911840096       -4.1713488106        6.6158679880
  H        15.8878067442       -3.1283717904        4.3634957007
  C        12.4277259216       -2.0705302670        3.0737502382
  C        11.3846289705       -2.6214727094        2.3755944004
  C        11.3529607708       -2.5549427428        0.9727706851
  C        12.4361886620       -1.9789073556        0.3714652119
  H        12.3970431121       -1.8771845610       -0.6930081773
  H        10.5297923428       -2.8976751631        0.4026089241
  H        10.6217091096       -3.3036029285        2.8626252037
  H        12.4071254041       -2.0886011669        4.1460501986
  C        14.5810216383       -1.1465699920       -1.1572111616
  C        15.2353040642       -2.2929366554       -1.5669946043
  C        15.2770700194       -2.6049972751       -2.9139064838
  C        14.6058898448       -1.8537026042       -3.8237091321
  C        13.8819982458       -0.7385463100       -3.4256319562
  C        13.8556625388       -0.3656214652       -2.0501480383
  H        13.2175477928        0.4937551722       -1.6969532148
  H        13.2784940733       -0.2817700104       -4.2265993979
  H        14.5929757428       -2.0947808016       -4.9201245640
  H        15.8106436631       -3.5177291971       -3.2285430926
  H        15.6818246797       -3.0286913947       -0.8650688010
  C        11.9729527104        7.0510461438        2.5001358844
  C        10.9183972847        7.7883797358        3.1714944790
  C         9.9413361200        8.5125297159        2.3838346985
  C         8.8690440514        9.2508129229        2.9972234719
  C         7.8821618781        9.9068748674        2.2998392863
  C        10.9493282803        8.1091796270        4.6072071059
  C        11.8198675585        9.0525322970        5.0712978796
  C        11.7735812117        9.5980476534        6.3450832990
  C        10.8177006715        9.0314330112        7.1755808192
  C         9.9305840031        8.0233592350        6.7691171546
  C         9.9860342846        7.5310841203        5.4523247004
  H         8.9226804032        9.6025916865        4.0756009176
  H         7.0706234862       10.4343925890        2.7913554330
  H        12.5435931613        9.4890818737        4.3501882707
  H        12.4162228053       10.4138087383        6.6444476893
  H        10.7182263772        9.5021854019        8.1089743735
  H         9.2428447373        7.6162568284        7.4732965293
  H         9.2717698941        6.8223337723        5.0843974232
  C        12.0161304185        7.0371290777        0.9864736903
  C        13.1780314127        6.3908464939        0.3833375681
  C        14.1931835702        5.8256192342        1.1332152754
  C        14.0514915474        5.7442213184        2.5859161254
  C        12.9839310690        6.3364523148        3.2217417641
  C         9.9297271244        8.3843902092        0.9323634211
  C        10.9531001787        7.7103541568        0.2930547490
  C        10.9690694972        8.0454799379       -1.1941471829
  C        11.5659207331        9.2437637432       -1.5052388507
  C        11.6490171770        9.6625631476       -2.8119547674
  C        10.9824765874        8.9667302420       -3.8337064183
  C        10.2602199439        7.8136089994       -3.4759043193
  C        10.2119496835        7.3677013488       -2.1461065950
  H         9.7313457306        6.4123834617       -1.8633972145
  H         9.6996561022        7.3122043366       -4.2203301677
  H        10.7833040015        9.4312498646       -4.8115655925
  H        12.2210649986       10.5736063515       -2.8977787454
  H        12.0818082022        9.8915528364       -0.7716445186
  C         8.9218584447        9.1311236240        0.2001964109
  C         7.9030328060        9.7885925113        0.8745462304
  H         7.2340946090       10.3217760497        0.1941663837
  H         8.9036463437        9.1494290529       -0.8522386008
  C        12.9784979607        6.1135065084        4.7221952042
  C        12.1148638355        5.0558359125        5.0912018599
  C        12.1574290421        4.4842408080        6.3855292539
  C        12.9881683629        5.0188251150        7.3255113906
  C        13.7576995511        6.1644417718        7.0407454976
  C        13.7551285062        6.6889988486        5.7749804727
  H        14.3213601036        7.5870827600        5.5053920175
  H        14.5905202553        6.4907941261        7.7239919752
  H        13.0006766520        4.5442141826        8.2877112443
  H        11.4801077061        3.6147005713        6.6189100795
  H        11.4619144091        4.5430265227        4.3722973331
  C        15.0511536417        5.0458201765        3.2223554660
  C        16.1706896148        4.5667611581        2.6079985746
  C        16.3792102086        4.7081534959        1.2089221820
  C        15.3611579296        5.3080515192        0.5091627120
  H        15.4651047594        5.5074490120       -0.5737089539
  H        17.0865409942        4.0793422949        0.7075727680
  H        16.9946900433        4.0707310796        3.1372369891
  H        14.8049961752        4.8284200995        4.2593162058
  C        13.2605370853        6.1983445577       -1.0847455986
  C        12.5534067451        5.1434060407       -1.5479225962
  C        12.5288060593        4.8015340540       -2.8994987500
  C        13.1552866059        5.6712232622       -3.7634980739
  C        13.8379299749        6.8104487782       -3.3267585347
  C        13.7892381294        7.1524836797       -1.9698380752
  H        14.2654835415        8.0029310828       -1.5306309568
  H        14.4031780471        7.4093504371       -4.0751087204
  H        13.0697155036        5.5394217517       -4.8703901939
  H        12.0649921608        3.8967764147       -3.3750583425
  H        11.9686399750        4.5101761113       -0.8703528758
