140

  C        15.0752596922       -1.0778560050        0.3807873800
  C        16.0622357894       -0.3259469859        1.0994253424
  C        17.1339375062        0.2714359202        0.3387429690
  C        18.0295944174        1.1316313325        0.9387214773
  C        19.0890901428        1.7233350604        0.1967450428
  C        15.8993109123        0.0897066650        2.5590370216
  C        15.0240828675        1.1244515627        2.8769228063
  C        15.0120419285        1.6966528214        4.1372649387
  C        15.8529489750        1.2409215112        5.1628827987
  C        16.6301817969        0.1022379931        4.8977247778
  C        16.7239507673       -0.4685533924        3.6346251013
  H        18.0144160011        1.3859215787        1.9483635018
  H        19.7350715382        2.4393925942        0.6869396245
  H        14.3195828642        1.6152257270        2.1227117814
  H        14.3599434579        2.5266330747        4.4225430923
  H        15.7704813975        1.7558742195        6.1260592698
  H        17.2135322224       -0.3442087480        5.7179043180
  H        17.2610143548       -1.3741997863        3.4816852099
  C        15.0624666092       -1.0003866777       -1.1096983675
  C        14.0227109277       -1.6161609907       -1.7679905495
  C        12.8878372592       -2.1113279722       -1.0012751659
  C        12.9614941344       -2.2587566525        0.3935179678
  C        14.0690490075       -1.7849949326        1.0685386935
  C        17.2001953769        0.1831280702       -1.0932686566
  C        16.1199381751       -0.3505655540       -1.7910218417
  C        16.1699933056       -0.0318697736       -3.1845300022
  C        15.5582202127        1.1577695380       -3.7022877582
  C        15.6528123675        1.5645281033       -5.0408673479
  C        16.2799439800        0.6914957693       -5.9527336202
  C        16.8089928280       -0.5233346438       -5.5121766877
  C        16.7666210938       -0.8677755976       -4.1163280657
  H        17.2026134942       -1.7389624703       -3.7219489624
  H        17.1852613988       -1.2952172710       -6.1342033310
  H        16.4427784235        0.9747021945       -7.0068527147
  H        15.2257855088        2.5108745409       -5.3780947775
  H        15.1078968654        1.8186418430       -2.9406448563
  C        18.3386359730        0.6724382371       -1.8545824887
  C        19.2794247211        1.3818928103       -1.1605147108
  H        20.0601333830        1.8995420995       -1.6297183286
  H        18.3449067248        0.6125808414       -2.9290426058
  C        14.1635770852       -2.0960412990        2.5522863784
  C        15.0150099895       -3.0764955766        3.0510298424
  C        15.0616149032       -3.4506549450        4.3772593588
  C        14.1771340367       -2.8805683249        5.2877417698
  C        13.3268174452       -1.8987678941        4.8591649341
  C        13.2817396268       -1.5330590063        3.4403217399
  H        12.5197466551       -0.8217152224        3.1924394143
  H        12.5602769492       -1.4495134655        5.5437706495
  H        14.2004696749       -3.2394236903        6.3584500334
  H        15.7748853555       -4.2039608742        4.7504192703
  H        15.7269588636       -3.5966813311        2.4035810363
  C        11.9207249355       -2.9678916543        1.1033333518
  C        10.8110479894       -3.4361479418        0.4266121715
  C        10.7376383203       -3.2069332848       -1.0252452958
  C        11.7255184778       -2.5845268409       -1.6245611635
  H        11.5387598911       -2.3957172298       -2.6925924740
  H         9.8833953080       -3.5795611426       -1.5679011361
  H        10.0409213095       -3.9987071088        0.8463889150
  H        11.9915109004       -3.2549211583        2.1264079383
  C        14.1528781823       -2.0388334461       -3.1784721636
  C        14.4961369270       -3.3759688401       -3.5084971111
  C        14.5367877574       -3.7834973103       -4.8600918860
  C        14.2532331381       -2.9787332791       -5.8798813886
  C        13.8042553169       -1.6763346898       -5.6567721769
  C        13.6880792677       -1.2964848252       -4.3329212240
  H        13.1505002737       -0.3966298354       -4.1083636724
  H        13.5071535074       -1.0973336582       -6.4967921250
  H        14.2597190823       -3.3137755408       -6.9251678563
  H        14.8295428569       -4.8306507819       -5.0590850734
  H        14.9747118318       -4.0502961202       -2.7545000952
  C        11.2421017920        6.2746941953        0.3743269059
  C        10.1912820244        6.9824234075        1.0348385323
  C         9.1634347911        7.5510447341        0.2723843400
  C         8.0067244347        8.1438442929        0.9007824403
  C         7.0891840154        8.8007479505        0.1453688752
  C        10.2454755801        7.3945875339        2.4982414504
  C        11.2633325621        8.3289149549        2.8337641543
  C        11.3944736095        8.7603935331        4.2255156675
  C        10.4177735133        8.3849486126        5.1150676939
  C         9.5094544896        7.4038228439        4.8094595850
  C         9.4466547149        6.8911716284        3.5065003266
  H         7.9270467318        8.0481251978        1.9651046339
  H         6.4062152083        9.4649358919        0.6951000007
  H        11.8520458576        8.8615846676        2.0473469960
  H        12.1449075712        9.4463510556        4.5806801559
  H        10.5462562162        8.7894763289        6.1898892428
  H         8.6643711352        7.0038274326        5.4064179807
  H         8.8772426831        5.9921636564        3.3284428503
  C        11.3105321746        6.2343661731       -1.0992865601
  C        12.4000876678        5.5117353806       -1.7976839392
  C        13.4780925049        5.0516916378       -0.9868727376
  C        13.4329101982        5.0834558112        0.3998920623
  C        12.2790267862        5.6752514243        1.1329713884
  C         9.2078716079        7.5059067056       -1.1584389458
  C        10.2200036827        6.7786129630       -1.8470156445
  C        10.2833843549        7.0526573076       -3.2941692957
  C        11.3242791702        7.9768236337       -3.6708257281
  C        11.3882528707        8.4036945894       -5.0235895307
  C        10.5073908482        7.9326086305       -6.0087993982
  C         9.4996953709        7.0072245744       -5.6541205943
  C         9.3325517644        6.6757464197       -4.2520444371
  H         8.5388110477        5.9935342827       -3.8903326398
  H         8.7982912956        6.5126090104       -6.2996890455
  H        10.6304492780        8.2366282569       -7.0500653008
  H        12.0679056424        9.0731013199       -5.4019281518
  H        12.0101891115        8.4638324316       -2.9615101099
  C         8.1804262983        8.1996051383       -1.8976830449
  C         7.2097430750        8.8946186441       -1.2458526177
  H         6.5739351323        9.5580215641       -1.8599003719
  H         8.1554750772        8.2872786176       -2.9733308600
  C        12.2153643887        5.3130925295        2.5461392071
  C        11.5801768984        4.1499386679        2.9545443312
  C        11.2228240393        3.9556513748        4.2794026414
  C        11.9904291542        4.6319835249        5.2721221515
  C        12.9307046536        5.6547980204        4.8682041063
  C        12.8719594593        6.0512917350        3.5438971118
  H        13.4287750930        6.8867972656        3.1927819913
  H        13.5741203696        6.2265631856        5.5845937589
  H        11.9713031372        4.3941507364        6.3404464863
  H        10.5787486807        3.2236311932        4.6669009058
  H        11.0345918826        3.5091083286        2.2369452657
  C        14.4509795470        4.5141752303        1.1313300343
  C        15.4602920647        3.7918663791        0.5414430577
  C        15.5931535270        3.7724874998       -0.8593564552
  C        14.6082304232        4.2993425661       -1.6213415664
  H        14.5738482687        4.2815521154       -2.7337057710
  H        16.3920393657        3.1545935608       -1.2731260351
  H        16.2248883374        3.3088346451        1.1482844393
  H        14.4515353234        4.6933292680        2.2780528668
  C        12.4703289488        5.1761683113       -3.2612003110
  C        11.5781688005        4.2795063219       -3.8179362825
  C        11.6861394615        3.7979178292       -5.1402082363
  C        12.7111199619        4.3633943628       -5.9296622202
  C        13.5710041122        5.3367135503       -5.4027392808
  C        13.4035326015        5.8028762260       -4.0989762067
  H        14.0861332251        6.5275106816       -3.5587685530
  H        14.1317863567        5.7936906261       -6.1431394872
  H        12.8101818357        4.1269780866       -6.9953659348
  H        10.9409411465        3.0753054966       -5.5535172341
  H        10.8252447595        3.7611663263       -3.2673035971
