140

  C        15.3749511767       -1.1713171250        0.5542563454
  C        16.4620937039       -0.5949560879        1.2554078358
  C        17.5808795817       -0.0609134301        0.5826774363
  C        18.6612644821        0.6039295082        1.2167876220
  C        19.5674243402        1.4287585700        0.6248746126
  C        16.4507438719       -0.1477156575        2.6967170955
  C        15.7081993031        1.0159106502        3.0436339625
  C        15.8222352235        1.5205112314        4.3356478208
  C        16.7013865434        0.9499789048        5.2408185733
  C        17.5133740635       -0.1311672514        4.8613904178
  C        17.3730296814       -0.6860524614        3.5891485679
  H        18.7909047209        0.5141542604        2.3070611242
  H        20.2094107316        2.0431358674        1.2310860787
  H        14.9837149700        1.4671726872        2.2912784312
  H        15.1818113650        2.3240398361        4.5620761066
  H        16.8604387253        1.3361191408        6.2521864088
  H        18.2184675031       -0.4566836817        5.6189566297
  H        18.0525995747       -1.5630817570        3.4396845710
  C        15.3381694890       -1.0202995160       -0.8940129068
  C        14.2649632576       -1.6202631324       -1.6405323716
  C        13.2049972137       -2.2071481213       -1.0037444468
  C        13.1588823352       -2.2588494622        0.4544523331
  C        14.2047362398       -1.7369090966        1.2229069770
  C        17.5189769452        0.1062236229       -0.8358858989
  C        16.3355997448       -0.2897273059       -1.5879289152
  C        16.2788266739        0.1419155723       -3.0325595168
  C        15.3764977219        1.1279512523       -3.5129905840
  C        15.3860210394        1.6041759353       -4.8261380868
  C        16.2408611949        1.0299119485       -5.7774625750
  C        17.1637216596        0.0637299880       -5.3185704786
  C        17.1453371354       -0.3468272970       -3.9752980250
  H        17.7936686458       -1.1818626318       -3.6774346914
  H        17.7762444475       -0.4843249806       -5.9981742444
  H        16.2533262730        1.3828635222       -6.8231661929
  H        14.6610037443        2.3680573468       -5.1023881450
  H        14.5780566695        1.5323871889       -2.8655753036
  C        18.5187637189        0.8770482200       -1.4462971701
  C        19.4511582053        1.5833570145       -0.7621318378
  H        20.1374031497        2.2781898866       -1.2075641779
  H        18.3555038231        1.0615006498       -2.4336159690
  C        14.2862253045       -2.0362489276        2.6354019464
  C        15.0780302858       -3.1803539898        2.9083638979
  C        15.2292837238       -3.6232846314        4.2036719259
  C        14.4117393433       -3.1776180818        5.2777046349
  C        13.6796478764       -1.9380578888        4.9615138100
  C        13.5766241503       -1.4002074933        3.6404294939
  H        13.0023584678       -0.5139589464        3.3885621310
  H        13.0544574905       -1.4913522677        5.8150228295
  H        14.4935743676       -3.4896269689        6.2930489081
  H        16.0265252221       -4.4027133213        4.3991162293
  H        15.4608784294       -3.6602204349        2.0163405400
  C        12.0686589783       -2.8809316343        1.1233948751
  C        11.0279075912       -3.4457078694        0.4328498614
  C        11.0944822235       -3.4106831162       -0.9814478673
  C        12.1265014057       -2.8476430119       -1.6754355655
  H        11.9474852192       -2.8915868776       -2.7486391498
  H        10.2876671766       -3.8874991000       -1.5743991141
  H        10.2194156808       -3.9423373213        0.9406958002
  H        12.1141653589       -2.9183526756        2.2406332258
  C        14.4046515213       -1.8876185691       -3.1496498200
  C        15.2031537808       -2.9209627995       -3.5615586904
  C        15.0875308304       -3.3150950532       -4.8835988653
  C        14.1282385860       -2.8146090544       -5.8224633479
  C        13.3483268533       -1.7689362556       -5.3511041920
  C        13.4900562984       -1.3385977903       -4.0519732846
  H        12.8431790220       -0.5342437641       -3.8040597441
  H        12.5827407936       -1.3544200897       -5.9713321002
  H        14.1463328916       -3.2065798521       -6.8243281791
  H        15.8071075832       -3.9969308712       -5.3337046134
  H        15.8737293880       -3.4812979943       -2.8796308330
  C        11.8267899414        6.3330240161        0.3465624408
  C        10.7402717832        6.8629545118        1.0555861759
  C         9.6119085115        7.3575492686        0.4405199783
  C         8.4764917854        7.9257553900        1.1731253870
  C         7.3132073654        8.2006977006        0.4709449892
  C        10.8360632190        7.1284466756        2.5374490390
  C        11.7410299555        8.1256083283        2.9510296453
  C        11.6781477473        8.6658235484        4.2480881856
  C        10.8183296061        8.0216587655        5.1665623027
  C         9.9876599085        6.9706785827        4.7767353872
  C         9.9566910358        6.5704718714        3.4597223219
  H         8.5532907551        8.2343602881        2.2168637047
  H         6.3599256124        8.3999748929        1.0279164814
  H        12.2296408618        8.7515447343        2.1599933833
  H        12.3582310477        9.4437145946        4.5589769199
  H        10.7864371450        8.3623948316        6.1330874184
  H         9.1822884098        6.4453057018        5.4440210618
  H         9.2692736074        5.7632009432        3.0551021394
  C        11.7654060147        6.3063396530       -1.1276878285
  C        12.7783167089        5.6377010775       -1.9144036423
  C        13.8949394621        5.1427665532       -1.2007715977
  C        13.9589890136        5.1205857491        0.2706812219
  C        12.8746925982        5.5973429323        1.0188299913
  C         9.5252306154        7.3040993579       -1.0610429387
  C        10.6413044644        6.9385303214       -1.7671751626
  C        10.6909382327        7.1418828149       -3.2337791164
  C        11.5097343418        8.1486534475       -3.6923180398
  C        11.4420028568        8.6078481838       -5.0112910629
  C        10.4683128608        8.1037701699       -5.9245936868
  C         9.5760124639        7.0590475038       -5.4933509193
  C         9.7155262772        6.5608290892       -4.1623218147
  H         9.0781205442        5.7700550375       -3.8167271417
  H         8.8291732837        6.7053224101       -6.2372244034
  H        10.3723451363        8.6562533918       -6.8915000484
  H        12.0834680202        9.4595207121       -5.2663402566
  H        12.1594078776        8.6743434923       -3.0104900706
  C         8.3107170745        7.6906775839       -1.7092291743
  C         7.1972759049        8.0633337969       -0.8932476441
  H         6.2290424001        8.1422056387       -1.3507314714
  H         8.2696005167        7.6610682420       -2.7604781318
  C        12.7718127455        5.0907057926        2.4194284216
  C        11.9858216797        3.9085986223        2.6286424489
  C        11.7510351456        3.3823188328        3.9276407310
  C        12.4566255644        3.9798266992        4.9869608934
  C        13.3675886449        4.9909021158        4.7854615263
  C        13.4781629056        5.6229161619        3.5320854312
  H        14.2456817903        6.4070568099        3.3945173523
  H        14.0114392994        5.3400959291        5.6035693112
  H        12.2937485749        3.5853409081        6.0662673110
  H        11.2047281060        2.5285872226        4.0795151578
  H        11.2414160376        3.6354199609        1.8486539486
  C        14.9754486878        4.3638815980        0.9540470073
  C        16.0079859685        3.6693316892        0.3414129600
  C        16.0135701397        3.7708848354       -1.0860453901
  C        14.9949729827        4.4505166320       -1.8544398845
  H        15.1205240052        4.5420946001       -2.9356990712
  H        16.8573399486        3.4384610490       -1.6679275040
  H        16.9292157855        3.1676161846        0.7707987915
  H        14.9099600042        4.2811409894        2.0022793397
  C        12.5989622983        5.1571078220       -3.2913752405
  C        11.7953869681        4.0537029190       -3.4817575904
  C        11.7102056321        3.4933159644       -4.7328661486
  C        12.3858521489        4.0193028534       -5.8092367119
  C        13.2115280439        5.1595963359       -5.6256427289
  C        13.2873958585        5.7605439526       -4.3436592083
  H        13.8496341517        6.7220198014       -4.0540485917
  H        13.8712209387        5.5729082166       -6.3862501386
  H        12.3005786056        3.4848365323       -6.7348084197
  H        11.0374633801        2.5619655558       -4.8862883278
  H        11.2732801116        3.6270032038       -2.5790744800
