140

  C        16.2362805189       -0.2856521897        2.8409200796
  C        17.2390632373        0.4571995533        3.4590368162
  C        18.4178753075        0.9453551587        2.7890303712
  C        19.4408017359        1.6319889295        3.4958367430
  C        20.4338265050        2.2897522745        2.7789968403
  C        17.2045608289        0.8304592829        4.9091981705
  C        16.3801645230        1.8412697635        5.4057376360
  C        16.3279320868        2.2490482113        6.7246126301
  C        17.1202750665        1.5314709871        7.6581216379
  C        17.9350572916        0.4724669005        7.2580318632
  C        17.9933083333        0.1436021129        5.8608341083
  H        19.3967884528        1.7341389646        4.5711660687
  H        21.2096711629        2.8951813212        3.1991104278
  H        15.8128514465        2.3084028854        4.6665146056
  H        15.6312207196        3.0139422078        7.1036295897
  H        16.9627335977        1.8053580882        8.6755268147
  H        18.5900113097        0.0079404908        7.9191185156
  H        18.6397938335       -0.6641053299        5.6068566755
  C        16.2380086762       -0.4271692539        1.4278905163
  C        15.2960997434       -1.1946639660        0.6900535282
  C        14.1807439040       -1.6841893328        1.3712075078
  C        14.1293240719       -1.6273312347        2.8234164939
  C        15.1869019227       -0.9935409125        3.5445863181
  C        18.3634103943        0.8911562266        1.3233755334
  C        17.2880561970        0.1979693011        0.6509986053
  C        17.1965170308        0.4682070640       -0.7994564394
  C        16.3203668237        1.4352521798       -1.3298592962
  C        16.1992085644        1.7202082241       -2.7025527292
  C        16.9663822441        1.0463048944       -3.6177324581
  C        17.9541327280        0.1317658521       -3.1733234259
  C        17.9348176024       -0.2920237042       -1.8271803475
  H        18.6647125109       -1.0007419725       -1.4792928726
  H        18.6694950178       -0.4304711210       -3.7988856231
  H        17.0112898488        1.2716920781       -4.6766858673
  H        15.5319509414        2.4236820034       -3.0800630800
  H        15.6791274617        1.9350131237       -0.5926175706
  C        19.4364574784        1.4769657582        0.6390630383
  C        20.3716034372        2.1895345554        1.3305994559
  H        21.2661103941        2.5323969104        0.7753170741
  H        19.6106425060        1.3738852207       -0.5012042640
  C        15.3426086226       -1.3942047906        4.9607011485
  C        16.2526578738       -2.4205095650        5.2729834716
  C        16.4830649432       -2.8372370341        6.6270719575
  C        15.6046497820       -2.3219857505        7.6467043235
  C        14.6230475847       -1.4391705182        7.3065576684
  C        14.5159104050       -0.8935723346        6.0185100605
  H        13.8278042115       -0.1309869749        5.8562988285
  H        13.9379523437       -1.1523678689        8.1157267437
  H        15.7392217488       -2.6986044478        8.7234887923
  H        17.3454752133       -3.4808234709        6.8701084594
  H        16.9268979174       -2.8608733091        4.5248035276
  C        12.9849978880       -2.2496116635        3.4582911566
  C        11.8898361904       -2.6945666974        2.8025445082
  C        11.8550721077       -2.6803481538        1.3484250360
  C        13.0314506981       -2.2658543076        0.7341388603
  H        13.0558370320       -2.4732991850       -0.3466772626
  H        10.9578589829       -2.9907054072        0.8486257657
  H        11.0547112163       -3.1219600754        3.3632667611
  H        12.9835644652       -2.4404875530        4.5318478909
  C        15.3799880205       -1.5268801318       -0.7510538200
  C        16.1040748246       -2.6653333023       -1.0913072400
  C        16.0634439584       -3.1416584290       -2.4240435035
  C        15.3220469106       -2.5158947101       -3.4092799823
  C        14.5068529151       -1.4381343110       -3.0533519211
  C        14.6267674059       -0.8982010896       -1.7505463147
  H        14.1991855137        0.0893475671       -1.4716028817
  H        13.8885168743       -0.9036480068       -3.7358186975
  H        15.4563666542       -2.9471331732       -4.4310901071
  H        16.6488254057       -4.0783062315       -2.6433696660
  H        16.5274855854       -3.2300762514       -0.2782231530
  C        12.6360475420        6.7044318101        2.7268263493
  C        11.6444862712        7.3867331910        3.5128435808
  C        10.5119890096        8.0539161996        2.8026646844
  C         9.5681220404        8.8475067601        3.4859300193
  C         8.5407887575        9.5993000033        2.8596927254
  C        11.7657341551        7.7743911185        4.9891158278
  C        12.4769030966        8.9190838102        5.2499495371
  C        12.3725856643        9.5982639300        6.4447781408
  C        11.6031825946        9.0568276159        7.5155670709
  C        10.8973996540        7.9216839225        7.2988237464
  C        10.9225448833        7.2085768659        6.0263007460
  H         9.4468140555        8.7340297877        4.5477688333
  H         7.8397945794       10.1638623914        3.4517607931
  H        13.2499531556        9.2250596893        4.5697699650
  H        12.8664351408       10.5325892190        6.4990626109
  H        11.5353004504        9.6114553375        8.4615026869
  H        10.3199250488        7.5244123063        8.1124801832
  H        10.2473100702        6.3921444334        5.8171522116
  C        12.6036508798        6.7388465215        1.2916736998
  C        13.6201013177        5.9490108477        0.4943848470
  C        14.6455277245        5.3295796471        1.1879642394
  C        14.7408328637        5.3748666913        2.6417914817
  C        13.6900693236        6.0183706580        3.3771010465
  C        10.5896232614        8.1215337859        1.3677294176
  C        11.6513859092        7.5366031006        0.6372437936
  C        11.8487525593        7.9622713390       -0.7936402630
  C        12.9191616093        8.8090928797       -1.1395496929
  C        12.9868433885        9.5554113833       -2.3177040756
  C        11.9925879060        9.3895486607       -3.3619410295
  C        10.9890558697        8.4471742839       -3.0631287709
  C        10.9250074345        7.7724035089       -1.7942088506
  H        10.0500610780        7.1798535751       -1.6093873331
  H        10.0587961922        8.4026447135       -3.7409013679
  H        12.0198075097        9.9693188522       -4.3111774925
  H        13.8627868619       10.2045523460       -2.4376619505
  H        13.5158379293        9.1480537641       -0.2870965720
  C         9.5853264107        8.9081656803        0.7428335507
  C         8.5331583810        9.5667317223        1.3990086632
  H         7.6649377659        9.9572274490        0.8002680615
  H         9.6475844742        9.0461995724       -0.3293828583
  C        13.7228614513        5.8050258045        4.8922589399
  C        13.0991138484        4.7372869202        5.5655317946
  C        13.1643670696        4.4777191868        6.9414320840
  C        13.9972468533        5.2842150935        7.6732026745
  C        14.6959339943        6.3829052967        7.0842288149
  C        14.6007666679        6.5597547795        5.7035946227
  H        15.0338035108        7.4629158497        5.3154521735
  H        15.4178467470        6.9958217020        7.6534235410
  H        14.0544435193        5.1130550728        8.7731207715
  H        12.5824179506        3.6180198600        7.3222570040
  H        12.4842031522        4.0990292012        4.9164069018
  C        15.8306334046        4.7305886498        3.3507969191
  C        16.8306905929        4.1873429867        2.5987990799
  C        16.7700044594        4.0762597233        1.1812902882
  C        15.7033726326        4.6433979138        0.4819076179
  H        15.5942106485        4.3502842261       -0.5383398951
  H        17.5580863137        3.6496756392        0.5596400277
  H        17.6476886057        3.6144091538        3.0328749491
  H        15.9149264156        4.8180001906        4.4496773292
  C        13.5717319919        5.7219280970       -0.9817362375
  C        12.7769039807        4.6234989999       -1.4477734360
  C        12.8536980025        4.1935481332       -2.7739529166
  C        13.7352353713        4.7617382602       -3.6878848396
  C        14.6286543266        5.7777059356       -3.2447212584
  C        14.4857845860        6.3385316340       -1.9519756923
  H        15.0827215441        7.2282796407       -1.6864049439
  H        15.3782963871        6.2353760251       -3.9476987912
  H        13.8507274818        4.3658854976       -4.7648822212
  H        12.2769225578        3.3263279045       -3.1185475925
  H        12.1539060404        4.1427003043       -0.6989441907
