140

  C         3.4067080726        0.0432043426       14.7380385201
  C         4.3781499691        0.8283890723       15.4992842671
  C         5.5720517671        1.2438459850       14.8354025029
  C         6.6096944210        1.8977410640       15.5827997085
  C         7.5876594570        2.5743283768       14.9285402253
  C         4.2843769139        1.0786749715       16.9985318437
  C         3.5373253752        2.1698197385       17.4575650526
  C         3.5724141511        2.7244353087       18.7626829406
  C         4.3331014130        2.0574786544       19.7085625494
  C         5.0679649395        0.9164021809       19.3325285908
  C         5.1743053960        0.4398469432       17.9681743983
  H         6.5894697733        1.9928948111       16.6475731286
  H         8.2513869486        3.2141124879       15.5137533848
  H         2.8492592745        2.6371256179       16.7180589098
  H         2.8708950692        3.5243165223       19.0861226200
  H         4.3395858309        2.3696578116       20.7252760887
  H         5.5994834514        0.3175883939       20.1059506105
  H         5.8147425420       -0.3696893629       17.6663776579
  C         3.4727156479        0.0397081640       13.2544243984
  C         2.4634927387       -0.7062701837       12.4930223399
  C         1.3618351586       -1.2717779072       13.2207437170
  C         1.3050293001       -1.1805436411       14.6446348276
  C         2.3545444844       -0.6684057308       15.4130363770
  C         5.6988688700        1.2565360464       13.3623013331
  C         4.6188371067        0.7417754120       12.6491671968
  C         4.5864414502        0.9275372207       11.2117942398
  C         3.7484414959        1.9513131931       10.7423416453
  C         3.7040852410        2.3099580901        9.3932969228
  C         4.5510088466        1.6732620712        8.4953652528
  C         5.3220647046        0.5781234024        8.9530167178
  C         5.4460326495        0.3032188678       10.2998003651
  H         6.0153500393       -0.5572427194       10.6751659877
  H         5.9853639065        0.0812818838        8.2827430743
  H         4.4176146444        1.8278961707        7.4110023020
  H         2.9903350404        3.0801289586        9.1165518606
  H         3.0546867426        2.4859308360       11.3873386948
  C         6.7748828013        2.0367697063       12.7566928221
  C         7.7146456922        2.6305397449       13.5978508935
  H         8.4664843539        3.1865195664       13.0044642735
  H         6.9185728289        2.1925268534       11.6595859581
  C         2.4173059536       -0.9419243064       16.9037414333
  C         3.1695048951       -2.0395875902       17.2585496474
  C         3.0506535888       -2.6699616047       18.5543989218
  C         2.1586118746       -2.1101430450       19.4565056045
  C         1.3973637340       -0.9192112780       19.0957770394
  C         1.5370295369       -0.3325122239       17.8639060597
  H         0.9077956804        0.5807570064       17.6467893090
  H         0.5182828365       -0.5290140511       19.6665978587
  H         1.8108633302       -2.5495675607       20.3788122831
  H         3.3954232141       -3.6866223148       18.7585636388
  H         3.7411720654       -2.6464680570       16.5724337453
  C         0.1978491799       -1.8703422447       15.2574620858
  C        -0.8408072296       -2.3291749319       14.5125999591
  C        -0.7337674223       -2.4122704802       13.0905393102
  C         0.3553638049       -1.9181110512       12.4767217428
  H         0.5748092817       -2.0995213399       11.4470942567
  H        -1.5999290304       -2.8128230141       12.5425525454
  H        -1.7373796032       -2.6630625852       15.0091039647
  H         0.0375521548       -1.8854111476       16.3258129398
  C         2.5644402530       -1.0678478479       11.0347290368
  C         3.0820021278       -2.3567374664       10.6681580137
  C         2.9524929091       -2.7968089415        9.3855046530
  C         2.1124867309       -2.1649568035        8.3825334750
  C         1.5264498048       -1.0355587141        8.8150365303
  C         1.7271053429       -0.4711271024       10.1068695852
  H         1.1992577848        0.4626052829       10.3926242406
  H         0.8594714661       -0.5273537582        8.1840195797
  H         1.9241851645       -2.5554883958        7.3657294343
  H         3.4207671387       -3.6938775976        9.1144183810
  H         3.6709561854       -2.9640193690       11.3639333427
  C        -0.3157631794        7.2783816063       14.5270386570
  C        -1.2759685608        8.1373051637       15.1477265826
  C        -2.2837525007        8.7717794673       14.3326700750
  C        -3.3135409809        9.5525142139       14.8996080903
  C        -4.2505881031       10.2658518688       14.1153724659
  C        -1.2056057870        8.5759081614       16.5829611631
  C        -0.2338655595        9.4758127470       17.0438899688
  C        -0.2554332667        9.9187085511       18.3734264335
  C        -1.1442835670        9.3844605544       19.2879775686
  C        -2.1023450350        8.4056299775       18.8245852103
  C        -2.1112382215        8.0531842682       17.5070222238
  H        -3.3461230843        9.7185689710       15.9651863994
  H        -4.9514219818       10.9172437300       14.5655407354
  H         0.3036546657        9.9683714358       16.2505872939
  H         0.2958468181       10.8395477249       18.6023221097
  H        -1.3539444202        9.7172014696       20.2756690413
  H        -2.8196461521        8.0209683155       19.5591948981
  H        -2.8258265055        7.3291539633       17.1240036027
  C        -0.2547034412        7.2184972445       13.0301493157
  C         0.8305583765        6.4403175024       12.4515358428
  C         1.8454230270        5.9318135159       13.3351640323
  C         1.7930185320        5.9556565132       14.7451239038
  C         0.6930409594        6.6093515989       15.3105129880
  C        -2.2941511042        8.6156367949       12.8823464586
  C        -1.2660970633        7.8727114988       12.2702267894
  C        -1.2238477732        8.0910608770       10.7761162799
  C        -0.4690318796        9.1472434421       10.2525368416
  C        -0.6179190415        9.5757136778        8.8939885432
  C        -1.4916891029        8.8752382464        8.0445139157
  C        -2.3287010458        7.8602044653        8.5693504112
  C        -2.1637944826        7.4591429897        9.9144711073
  H        -2.9214392992        6.8219475525       10.3760306334
  H        -3.0182453091        7.3412105736        7.9374496282
  H        -1.7348652374        9.2527211139        7.0577075469
  H        -0.0692339093       10.4784240670        8.5775094468
  H         0.2801520683        9.6673921206       10.8572123055
  C        -3.3965036773        9.2094656619       12.1036299374
  C        -4.3120657457       10.0670422717       12.7056744717
  H        -5.0152913380       10.6194880234       12.0950063936
  H        -3.5209359723        9.0802212486       11.0525402424
  C         0.5575889916        6.3271995168       16.8681054608
  C        -0.3684600576        5.3310904270       17.3401711316
  C        -0.2875237127        4.9204904693       18.6601914363
  C         0.7420449701        5.3377443699       19.5093705974
  C         1.5789259968        6.3638677748       19.0568314592
  C         1.4971434665        6.9201954174       17.7746287908
  H         2.2702564800        7.5658422026       17.3650853456
  H         2.2716680853        6.7649481586       19.7928822427
  H         0.8432293877        5.0027969678       20.5174596794
  H        -0.9490846449        4.1680262953       19.0875855271
  H        -1.1974752746        4.9192284028       16.7401112606
  C         2.8793071708        5.3126842369       15.3792521081
  C         3.9301730861        4.6934190669       14.7586839004
  C         4.0704194188        4.8625855422       13.3306019002
  C         2.9683613651        5.3207101259       12.6818650263
  H         2.8935343392        5.3805462574       11.6032320960
  H         4.9479220038        4.4296704752       12.8739443859
  H         4.7358313657        4.1555067776       15.2868463313
  H         2.8735131020        5.3018301151       16.4722234052
  C         0.9488904421        6.1556831402       11.0115651730
  C         0.2937375109        4.9341413110       10.6159644168
  C         0.4689804928        4.4503463350        9.3271818713
  C         1.3969310115        5.0613815495        8.4457924508
  C         1.8204673040        6.3867291583        8.7628455573
  C         1.6402216054        6.8697092450       10.0660533017
  H         2.0734580402        7.8406456987       10.1744655531
  H         2.3150570493        6.9113316802        7.9442941602
  H         1.5985520735        4.6499781187        7.4846305629
  H         0.0381945101        3.5139895188        9.0253285964
  H        -0.3653837466        4.4308827321       11.3138773880
