140

  C         4.8493949972       -0.2941778755       15.7184480468
  C         5.8166205129        0.4609544610       16.3865235372
  C         6.8658962858        1.0721816494       15.7010983915
  C         7.8078735859        1.9546955430       16.3216477371
  C         8.7976195824        2.6507741807       15.6765950399
  C         5.7833485980        0.8364883036       17.8425092574
  C         5.0830460773        1.9960961452       18.2291237909
  C         5.0161073120        2.5729107398       19.5024364525
  C         5.8241169641        1.9107018305       20.4740954534
  C         6.5856133697        0.8708046540       20.1472813402
  C         6.5533213448        0.2455696845       18.8335519719
  H         7.7396554941        2.1392569063       17.4024921122
  H         9.3533124105        3.4002220037       16.2709152137
  H         4.5556606177        2.5278423877       17.4092400135
  H         4.4421818061        3.4190558401       19.7879272453
  H         5.7473281305        2.1254506064       21.5383480798
  H         7.2990721297        0.4750033846       20.8629464108
  H         7.0903743056       -0.6525405163       18.8205514121
  C         4.8658391413       -0.4259539523       14.2534785837
  C         3.8187659399       -1.0597122045       13.5409155023
  C         2.6900233989       -1.5447831606       14.2713367027
  C         2.7274534448       -1.4196602129       15.7026501056
  C         3.8251119384       -0.9597003166       16.4243961929
  C         6.9129130519        1.0651510464       14.2596099469
  C         5.8369055701        0.3917450587       13.5637333451
  C         5.6683424307        0.8338920991       12.1274017166
  C         4.8157071385        1.9690098106       11.9805839348
  C         4.7787944836        2.7724906961       10.8634646581
  C         5.6032530126        2.4444078188        9.7802937424
  C         6.3998268855        1.2627508492        9.8591695169
  C         6.4880857325        0.5128554431       11.0378114623
  H         7.2007411851       -0.2709143788       11.1309594642
  H         7.0858007691        0.8397000415        9.1630376413
  H         5.5263102451        3.0881913782        8.9298711745
  H         4.2412201477        3.6999964310       10.8484788507
  H         4.1768369961        2.2651692155       12.8355370174
  C         7.8537678893        1.8464841772       13.5430108582
  C         8.8173430558        2.5414341824       14.2274984567
  H         9.3989629972        3.3143388889       13.6604568920
  H         7.8111613736        1.8659462767       12.4736991604
  C         3.9134487555       -1.2547835749       17.8536518416
  C         4.7051829479       -2.3865475514       18.3583430944
  C         4.7325401715       -2.8009802541       19.7183762389
  C         3.9139440475       -2.0840540539       20.6267380241
  C         3.2859773146       -0.9115943111       20.1811896870
  C         3.1888335522       -0.4644779600       18.7990666782
  H         2.6324225191        0.4004645248       18.5202644349
  H         2.7223646118       -0.3189818769       20.8501869133
  H         3.7443792608       -2.3814984171       21.6667662286
  H         5.2674789389       -3.6309701083       20.1282792898
  H         5.4500928426       -2.8083774124       17.7127366003
  C         1.6457951532       -1.9279438165       16.4324888764
  C         0.4544436123       -2.3160585783       15.8199061040
  C         0.4015454794       -2.4345137789       14.4264329922
  C         1.5236123735       -2.1124721264       13.6346483906
  H         1.3927319014       -2.1725718800       12.5807825442
  H        -0.5393607327       -2.7704840491       13.9359928227
  H        -0.3293683731       -2.6805133539       16.4636613167
  H         1.6660987066       -1.9290403336       17.4671044130
  C         3.8655331461       -1.3556223264       12.0330077781
  C         4.8010850427       -2.2930356863       11.5618534003
  C         4.7723672697       -2.7568507961       10.2429189314
  C         4.0082071276       -2.1131333439        9.3071081460
  C         3.2220745856       -1.0853835364        9.6849555625
  C         3.1086125633       -0.7262044465       11.0231826488
  H         2.3768521170        0.0484893570       11.2614851379
  H         2.5453967230       -0.6323137654        8.9713875699
  H         4.0083448977       -2.4799099995        8.2503511584
  H         5.5443512322       -3.4092061602        9.8707730898
  H         5.4391027783       -2.7144295826       12.3002333171
  C         1.1232574684        7.0977438215       16.1151848197
  C         0.1737672051        7.8820326050       16.8948980843
  C        -0.8125666192        8.6111324819       16.2232945648
  C        -1.9132506799        9.2269891053       16.9789396149
  C        -2.9724373715        9.7438311633       16.3144613743
  C         0.3924435131        8.2941371517       18.3499509385
  C         1.2831884061        9.3194906052       18.7650564206
  C         1.2597903803        9.7449679366       20.0906023610
  C         0.3631372522        9.1657726676       20.9914539861
  C        -0.5243787503        8.1771007823       20.6188022871
  C        -0.5593146561        7.7608676028       19.2953341110
  H        -1.9217657944        9.4039550784       18.0494061694
  H        -3.8309143541       10.1842574079       16.7866874278
  H         2.0210047769        9.7484727195       18.0039147356
  H         1.9468530106       10.4498261717       20.5723443459
  H         0.2681112958        9.5329800059       22.0595167553
  H        -1.1941231872        7.8419487199       21.4532631173
  H        -1.2853969497        7.0163815455       18.9268288634
  C         0.9796468626        6.9822446021       14.6491871631
  C         1.9833282313        6.2156127690       13.8780733718
  C         3.1876322598        5.8236647923       14.5600511872
  C         3.2067470668        5.8166032327       16.0508758435
  C         2.1574780303        6.3361106915       16.8360523947
  C        -0.9221264396        8.5887812569       14.7836561550
  C        -0.0679198359        7.7874487352       14.0468102784
  C        -0.0072118216        8.1837197671       12.5676984022
  C         0.7563192670        9.2948948315       12.2415681301
  C         0.8601758584        9.8035496749       10.9334324443
  C         0.0080280142        9.2846590384        9.9634056354
  C        -0.7492824350        8.1558373748       10.2112452836
  C        -0.6643942999        7.5192923975       11.4635044489
  H        -1.3188509961        6.6423689453       11.7060894784
  H        -1.4057265174        7.7830059269        9.4209886378
  H         0.0315903291        9.7144782023        8.9787367387
  H         1.5325103331       10.6148679529       10.6644838822
  H         1.3526416190        9.6445262326       13.0724027899
  C        -2.0417695140        9.2431373584       14.1940608093
  C        -3.0600844324        9.7956952922       14.9162612030
  H        -3.9264768118       10.1102266146       14.3765139491
  H        -2.0441019013        9.1198329871       13.1136312471
  C         2.1491010749        6.0256559275       18.3133708050
  C         1.0982223643        5.1220312916       18.6548691050
  C         0.8534548598        4.6396078022       19.9220846852
  C         1.7006083222        5.0242991605       20.9697796892
  C         2.8119550592        5.8443111771       20.6834658044
  C         2.9940121026        6.4375889990       19.3899750236
  H         3.7730730471        7.1732767447       19.2718050902
  H         3.4547376612        6.0296919935       21.5250266340
  H         1.4630945138        4.4779362032       21.8843139463
  H         0.0576349483        3.9202424557       20.0560519943
  H         0.4678917120        4.7872898656       17.8437405606
  C         4.3495851895        5.1627897549       16.7245031537
  C         5.4556114409        4.8206568290       16.0010682081
  C         5.4320949911        4.9214186870       14.6161049016
  C         4.2864345773        5.2694202187       13.8781316901
  H         4.4157533095        5.2953633436       12.7471553412
  H         6.3379368905        4.7102453301       14.0476096202
  H         6.3233502059        4.3794572115       16.4866000003
  H         4.3049298227        5.1750808533       17.8108068891
  C         1.9602066815        5.9721471356       12.3497333537
  C         1.2465973155        4.8328327298       11.8682273206
  C         1.1303635969        4.6710065905       10.4886102717
  C         1.7339144668        5.5260327483        9.6039359406
  C         2.4806239461        6.6242905864       10.0426940766
  C         2.5673236824        6.8808585365       11.3935575981
  H         3.0518079431        7.8084679959       11.7768052493
  H         3.0011744005        7.2554704560        9.2836897760
  H         1.5920200448        5.4048803833        8.4919964612
  H         0.5887514157        3.8206823389       10.1544997529
  H         0.7847809282        4.1641446361       12.5486400198
