140

  C         4.1493596489       -0.4423684581       14.2721629071
  C         5.1549672831        0.1992985470       14.9975082407
  C         6.2133620835        0.9044684565       14.2680725480
  C         7.3816804766        1.3576797444       14.9061433455
  C         8.3968592827        2.0367628270       14.2509422502
  C         5.0424762545        0.5383641687       16.5120519626
  C         4.4310313052        1.7053592846       17.0007873993
  C         4.6412353483        2.1217750275       18.2972192646
  C         5.5011941375        1.4742665006       19.1693162749
  C         6.2165660215        0.3568887004       18.7193961861
  C         5.9230960989       -0.0971123799       17.4459851744
  H         7.5366360308        1.1411792657       15.9368295138
  H         9.2815122123        2.3722416952       14.7795454927
  H         3.7071373820        2.3063370623       16.4581344163
  H         4.0835753172        2.9683101169       18.5560807244
  H         5.5525405627        1.7974003113       20.2299120989
  H         6.9579659759       -0.0807202974       19.3611764811
  H         6.4114392872       -0.9155075145       16.9746607818
  C         4.1002733163       -0.3455748623       12.8161929299
  C         3.1107081748       -1.1587652757       12.1399485121
  C         1.9366836893       -1.6704280945       12.8020248074
  C         2.0323184346       -1.6863743721       14.2197469923
  C         3.1258611155       -1.1054508774       14.9186397636
  C         6.2088087177        0.9434013232       12.8248765245
  C         5.0397783728        0.4277372214       12.1649636322
  C         4.8487470373        0.8422287199       10.7393870992
  C         4.0746960574        1.9662260631       10.4321576054
  C         4.0130586768        2.3677963344        9.0605590850
  C         4.7622360645        1.7934560952        8.0783341249
  C         5.5680944472        0.6967130534        8.3939367164
  C         5.5841853843        0.1812346284        9.7180105009
  H         6.1853278735       -0.6004077032       10.0827612380
  H         6.0250256545        0.1332348521        7.6330732916
  H         4.6723676919        2.1201065065        7.0780681659
  H         3.3465813824        3.2173892358        8.8154231557
  H         3.4305373943        2.4914695236       11.1775015585
  C         7.2596058871        1.6422995655       12.1380450765
  C         8.2932143209        2.2251351717       12.8595901865
  H         8.9893587740        2.9444665601       12.3735026009
  H         7.2300102912        1.5576667183       11.0612614139
  C         3.0765046172       -1.4750836595       16.4491640441
  C         3.7401781514       -2.6083280466       16.8063199198
  C         3.6819686079       -3.1000957247       18.1692724825
  C         2.8689301937       -2.4213263140       19.0815000084
  C         2.1510629240       -1.2830746444       18.7311811824
  C         2.2778444210       -0.8471341476       17.4053052362
  H         1.7739258075        0.0821273909       17.1306884374
  H         1.7788898410       -0.6217592262       19.4611185175
  H         2.8361265905       -2.8661119811       20.1036956024
  H         4.1343005239       -4.0325940892       18.4071284979
  H         4.2485559720       -3.2573484157       16.0747155052
  C         0.9468085029       -2.2936883186       14.9221243186
  C        -0.1901229560       -2.8656215505       14.3713881908
  C        -0.1741102802       -2.9237146363       12.9470398581
  C         0.8347910424       -2.3674897627       12.2103901038
  H         0.8244900804       -2.6024985985       11.1309224058
  H        -0.8720595597       -3.5614868067       12.4172530013
  H        -0.9907505308       -3.2479051887       14.9718021278
  H         0.8964636999       -2.1916923544       15.9432765382
  C         3.0964876958       -1.5147218508       10.6602319874
  C         3.7241281390       -2.7221130982       10.2630998178
  C         3.7038479592       -3.1507137332        8.9144072917
  C         2.9360506929       -2.4339698994        8.0079357605
  C         2.3139753272       -1.1597746615        8.3264292926
  C         2.3704500902       -0.7537850405        9.6628451295
  H         1.8929695301        0.1501601629        9.9710207621
  H         1.8019067121       -0.5185340179        7.5758884824
  H         2.8982195951       -2.8231971852        6.9313572460
  H         4.2902634129       -4.0610748332        8.6207340501
  H         4.3494686023       -3.2966942362       10.9304250246
  C         0.5273955935        6.9957517741       14.0863811733
  C        -0.5135486806        7.6420016297       14.7815303809
  C        -1.6408270332        8.0925759515       14.0921900335
  C        -2.7278743900        8.7431448763       14.7323850381
  C        -3.7710732238        9.4267797852       14.1051157885
  C        -0.4466134838        7.9590217919       16.2213830990
  C         0.4892609061        8.9022827211       16.7198109496
  C         0.5337750914        9.2444294178       18.0818648839
  C        -0.3291545253        8.6593735840       18.9519952477
  C        -1.1208366163        7.5778464325       18.5111004503
  C        -1.2367279433        7.3228183616       17.1645117160
  H        -2.7226209588        8.7888098174       15.8081772532
  H        -4.4661009858       10.0394620716       14.6796857549
  H         1.1972462588        9.3912865492       16.1055737264
  H         1.1783167191       10.0585512532       18.4259611146
  H        -0.3197823099        8.8909655183       20.0028297757
  H        -1.7273372026        6.9973578547       19.1699094658
  H        -2.0373901577        6.6323942363       16.8701210068
  C         0.6150501601        7.1217367667       12.6345143706
  C         1.6855584296        6.4616603476       11.9311207723
  C         2.7076092886        5.7404141850       12.6563509258
  C         2.6243910185        5.6538155474       14.0903422809
  C         1.5052207506        6.1511295599       14.7719376598
  C        -1.6570466538        8.1551505828       12.6274892805
  C        -0.4945074096        7.7569906926       11.8889159715
  C        -0.3797471099        8.1979209041       10.4686895067
  C         0.5032280931        9.2492455900       10.1680323536
  C         0.5232882119        9.7368128331        8.8490132865
  C        -0.3047661254        9.2269222876        7.8730581359
  C        -1.1347992397        8.0755552935        8.1577952679
  C        -1.1100300811        7.5844512011        9.4460641763
  H        -1.6666968249        6.7530532160        9.7744531309
  H        -1.6830363913        7.5989398162        7.3720950782
  H        -0.2438113957        9.5946328574        6.8551197173
  H         1.1730646902       10.6188108137        8.6432550119
  H         1.0506108318        9.8530042426       10.8921159411
  C        -2.7474360014        8.8313424876       11.9602348643
  C        -3.7636164152        9.4203545385       12.7039017464
  H        -4.5712846987        9.9588758049       12.2200650153
  H        -2.7716901011        8.9375108535       10.8876532642
  C         1.4021225230        5.7415450690       16.2389833218
  C         0.4993450902        4.7337089031       16.5552159632
  C         0.3636479639        4.3279107360       17.8712072648
  C         1.2108686156        4.9541355208       18.8984496256
  C         2.0724259238        5.9955410863       18.5075868102
  C         2.1804298503        6.3700039380       17.1552783643
  H         2.7935369167        7.1798794058       16.8098979078
  H         2.7078829817        6.5649592105       19.2120208069
  H         1.1673942138        4.5687575048       19.9303519643
  H        -0.2290707420        3.4601125215       18.1279585305
  H        -0.0910401119        4.3500333741       15.7061644318
  C         3.5394079922        4.8316942116       14.7913032997
  C         4.4893397794        4.1596485541       14.0950528279
  C         4.6096462783        4.2731706929       12.6534076403
  C         3.7210631678        5.0210338821       11.9909550381
  H         3.7570178256        5.0025189803       10.9197272989
  H         5.3371805515        3.6966091932       12.1066051785
  H         5.1943161240        3.5753094467       14.6613172973
  H         3.5319388436        4.8151524182       15.8643731910
  C         1.5345223608        6.0882935289       10.4762085611
  C         0.6296742736        5.0826437619       10.0213092368
  C         0.7677407322        4.6223327475        8.7594064384
  C         1.7209994986        5.1630442454        7.8457649669
  C         2.5615113033        6.1893445673        8.2319996169
  C         2.4233242834        6.6206913497        9.5527716764
  H         3.0976176692        7.4499948136        9.8795625834
  H         3.2789418112        6.6692194474        7.5611606843
  H         1.7049620087        4.7439782077        6.8548201432
  H         0.0693263025        3.8646328191        8.3618628494
  H        -0.1187183970        4.6762065145       10.7455220336
