140

  C        14.4140936369        0.1181657269        1.0579232721
  C        15.5442043169        0.7498018636        1.7162440637
  C        16.5832322135        1.2993213725        0.9929796002
  C        17.6595506227        1.8792035108        1.7185316111
  C        18.6282115061        2.5258652341        1.0267968014
  C        15.3014687932        1.2908413473        3.0741563436
  C        14.4609602665        2.3932639164        3.2869734466
  C        14.3697383539        3.0536327590        4.5027590049
  C        15.1705389263        2.5881642653        5.5516043112
  C        16.0802318463        1.5292333103        5.3753659199
  C        16.0921114775        0.8092411030        4.1718132264
  H        17.6783335037        1.9024653171        2.8422321233
  H        19.5128964353        3.0314983504        1.4023007924
  H        13.9078880470        2.7947214205        2.4284226321
  H        13.5394553973        3.7420892764        4.7318338206
  H        15.0630424670        3.2202706805        6.4397019999
  H        16.8729327659        1.2344091984        6.0627237594
  H        16.7529714585       -0.0429443174        3.9562514507
  C        14.4634085780        0.0838798665       -0.3780486108
  C        13.4560269379       -0.6264388965       -1.1110498779
  C        12.3681658986       -1.2472601412       -0.4625891459
  C        12.2433779235       -1.1031548914        1.0104858402
  C        13.3046465061       -0.5348101011        1.7995641765
  C        16.5690747586        1.2635057741       -0.4444258107
  C        15.4196915406        0.8311821651       -1.1741114628
  C        15.2677259058        1.2330058622       -2.6244822558
  C        14.4242220398        2.2565760877       -2.9443813069
  C        14.3536167806        2.7946911314       -4.2457817523
  C        15.0966153362        2.1722048151       -5.2673582977
  C        15.9773285019        1.0837251194       -4.9859881088
  C        16.0770202881        0.6118975401       -3.6885473825
  H        16.5916035188       -0.3322393836       -3.4458672995
  H        16.5695899470        0.6188455440       -5.7801236426
  H        15.0684099903        2.5180730115       -6.2940700677
  H        13.6945758355        3.6602201303       -4.3417286961
  H        13.8521862355        2.7524992852       -2.1785665405
  C        17.5054876542        2.0184363073       -1.1487810053
  C        18.5442741743        2.5525762828       -0.4283558009
  H        19.2544823821        3.2649281445       -0.8950800522
  H        17.4645856987        2.2146735660       -2.2169059691
  C        13.3405293132       -0.8309228790        3.2499094049
  C        14.3564928071       -1.7336674521        3.6469548731
  C        14.3422807526       -2.3492566465        4.9066781575
  C        13.4064329537       -1.9244859207        5.8607494701
  C        12.5494862577       -0.8334746993        5.5801611028
  C        12.5164334764       -0.3411046179        4.2701020723
  H        11.7168727538        0.2940972367        3.9497656495
  H        11.8961234144       -0.4901252877        6.3219104108
  H        13.4051362807       -2.3878575756        6.9030552494
  H        15.1230421957       -3.0233126752        5.0867224636
  H        15.0629173040       -2.1756470533        2.9896852566
  C        11.1634675684       -1.7571333026        1.6324942580
  C        10.1607229315       -2.3402514983        0.9799589064
  C        10.2155119530       -2.3639386809       -0.4425869832
  C        11.2664528870       -1.8167889208       -1.1292586599
  H        11.3362129410       -1.9670067703       -2.2013335375
  H         9.4955340073       -3.0084008591       -1.0039384930
  H         9.3956740248       -2.9492172891        1.4947101969
  H        11.1021765114       -1.7721352830        2.7163668918
  C        13.5320521947       -0.9321840942       -2.5408497539
  C        14.3695841355       -2.0007048920       -2.8589971969
  C        14.6320106444       -2.4032067016       -4.1805034194
  C        13.9269531460       -1.7729702357       -5.2493583437
  C        12.9953743844       -0.8031521120       -4.9123085917
  C        12.7680143321       -0.4134407583       -3.5750467370
  H        12.1312005572        0.4487009506       -3.3174477682
  H        12.3457902038       -0.3194030355       -5.6335292381
  H        14.0148731702       -2.0809766967       -6.3039828283
  H        15.2957654050       -3.2345897610       -4.2648901492
  H        14.7226304110       -2.5880558257       -2.0650239352
  C        10.7060732384        7.4964553079        1.2227309856
  C         9.6654420453        8.1523759333        1.9360865110
  C         8.5147428570        8.6512639070        1.1748352601
  C         7.4116660404        9.2183206173        1.8199035343
  C         6.3241194852        9.6803635796        1.0730899815
  C         9.6747851554        8.4010022056        3.3911148695
  C        10.4456435224        9.5165668186        3.9381140837
  C        10.3828964639        9.8061878896        5.2313577900
  C         9.4667339568        9.1546043730        6.1034035461
  C         8.7436899792        8.0762703398        5.6411072603
  C         8.8061880819        7.7228174333        4.3036454370
  H         7.4232713092        9.4017034837        2.9275436445
  H         5.5854169248       10.1616345950        1.7007568762
  H        11.1659736398        9.9791385593        3.3305244848
  H        11.0275732184       10.5666524123        5.5223021159
  H         9.5237960575        9.4671985954        7.1113094357
  H         8.0134994453        7.6772246488        6.2628985273
  H         8.2380519835        6.8078441974        3.8975918910
  C        10.7889544471        7.5999492491       -0.2357271432
  C        11.9005824770        6.9358023427       -0.8858015378
  C        12.9037067933        6.2646335229       -0.1380823569
  C        12.8647574216        6.3132269948        1.3306543017
  C        11.7419186931        6.7969002997        1.9964742503
  C         8.5132818424        8.5226206753       -0.2614672166
  C         9.7267037921        8.1771762935       -0.8774373020
  C         9.9461957619        8.5567450132       -2.3482571230
  C        10.9887027687        9.4590198029       -2.6381378264
  C        11.2255774393        9.9871600571       -3.9250541932
  C        10.3142642583        9.5398959099       -4.9708462877
  C         9.2692903294        8.6602746224       -4.6669864563
  C         9.0870583724        8.1131307940       -3.3684580267
  H         8.2498217732        7.4693078182       -3.1366188063
  H         8.5035907699        8.3889351033       -5.4393126969
  H        10.4027893014        9.9428962911       -5.9877728238
  H        12.0790369469       10.6011140141       -4.2088413699
  H        11.5806503167        9.7692750139       -1.8010007598
  C         7.4330272704        9.0939955154       -0.9339579643
  C         6.3433486301        9.6888776780       -0.3168326562
  H         5.5689590108       10.2308988196       -0.8727860314
  H         7.4386225953        9.1603398612       -2.0001866524
  C        11.5605821002        6.3841847226        3.4472551787
  C        10.8031517887        5.2215775595        3.7863668141
  C        10.6572157100        4.8429248595        5.1682217275
  C        11.3541840020        5.5569262690        6.1647620000
  C        12.3053032705        6.5146952131        5.7833502011
  C        12.4448788711        6.8866269257        4.4310526524
  H        13.2292583913        7.5575464235        4.1344247331
  H        13.0606879795        6.8971665641        6.4564683214
  H        11.1374523094        5.2547366482        7.1837231021
  H        10.1621659735        3.9524224265        5.5679245885
  H        10.2222107520        4.6465568723        3.0964118465
  C        13.9283929367        5.5898700171        2.0915943931
  C        14.9410161619        4.9652021621        1.4519748887
  C        14.9701446041        4.9296588536       -0.0166793134
  C        13.9583607282        5.5042641673       -0.7288414154
  H        13.8335001511        5.4554114181       -1.8402793878
  H        15.7781198166        4.3434978589       -0.4965761303
  H        15.6853376159        4.3856600119        2.0301733424
  H        13.7418506762        5.5727292446        3.1532611445
  C        11.8584876289        6.5640218303       -2.2826591253
  C        11.1233754403        5.4575058993       -2.7981919545
  C        11.2728404661        4.9847300716       -4.1277429006
  C        12.2223822773        5.6070655845       -4.9500427354
  C        13.0094239787        6.6446625895       -4.5360633450
  C        12.8226395167        7.1676047031       -3.2101108103
  H        13.3939576941        8.1354323805       -2.9757425119
  H        13.6225955427        7.1102662848       -5.3219016775
  H        12.4501469787        5.3103997228       -6.0277768940
  H        10.6486062340        4.1790771894       -4.4586125854
  H        10.2874906941        5.0210739223       -2.2153247937
