140

  C        15.6612106247       -1.3710850261        0.5884938422
  C        16.5942996684       -0.5988124987        1.3023722625
  C        17.6523291820        0.0033906187        0.5575042498
  C        18.7470889405        0.6370686400        1.2350440567
  C        19.7592404878        1.2700960934        0.5568589006
  C        16.5677141772       -0.2024814493        2.7610308701
  C        15.9128832095        1.0085687870        3.1243110641
  C        15.8192693071        1.4299888645        4.4365110701
  C        16.5325586784        0.6900201394        5.3791928557
  C        17.3364629570       -0.4431005597        5.0174958077
  C        17.3129427088       -0.9077176379        3.7251222607
  H        18.8361049175        0.6177274163        2.3180720642
  H        20.5564702441        1.7813582347        1.0549993446
  H        15.3635266928        1.4526676763        2.3728963029
  H        15.2923046532        2.3188055632        4.7002076880
  H        16.4382624946        0.9692074241        6.4508080740
  H        17.8422775562       -1.0096153694        5.7203006822
  H        17.7812467526       -1.8210911853        3.4337591406
  C        15.5909020634       -1.2766836737       -0.9688571406
  C        14.6869872637       -2.0279197763       -1.7696923057
  C        13.6163446999       -2.6527155313       -1.0821709002
  C        13.6123254140       -2.7363549015        0.3978797604
  C        14.6395105112       -2.1855766340        1.2211977398
  C        17.6453738741        0.0784638804       -0.8563834602
  C        16.5682092992       -0.4730667013       -1.6363082448
  C        16.6430158680       -0.0611010033       -3.0969043263
  C        16.1846266923        1.2736585753       -3.3943406194
  C        16.1462833026        1.7401140173       -4.7064645531
  C        16.6204109464        0.9132461301       -5.7817036252
  C        17.2703801758       -0.2745605402       -5.4539786938
  C        17.2146301968       -0.7972755155       -4.1270286431
  H        17.7229729752       -1.7478389458       -3.9525952903
  H        17.6821465671       -0.9259221431       -6.2868255597
  H        16.7101606672        1.3215864745       -6.8028668678
  H        15.6900564625        2.7553880167       -4.8758869932
  H        15.8521285798        1.9274600354       -2.5587696342
  C        18.6941185420        0.6867134579       -1.5609633688
  C        19.7129040170        1.2749584338       -0.8443105820
  H        20.4412038426        1.8097327114       -1.5545285005
  H        18.5674823384        0.6524904391       -2.6742724028
  C        14.7775001723       -2.5306759186        2.6643120411
  C        15.3809849022       -3.7564767916        3.0802028790
  C        15.2974410224       -4.1361417371        4.4021621933
  C        14.7911109358       -3.2552515217        5.3428363209
  C        14.2075822175       -2.0367565475        4.9729683235
  C        14.1623326369       -1.7076937496        3.6427630639
  H        13.4625644862       -0.9118767415        3.2278241066
  H        13.5976172929       -1.5412328707        5.7005899561
  H        14.8460896857       -3.5135996450        6.3487884779
  H        15.5796764437       -5.1615739931        4.8533812466
  H        15.8777888782       -4.3985474393        2.3761120103
  C        12.5308181687       -3.3796491756        1.0365430819
  C        11.4858640467       -4.0082556947        0.3688755187
  C        11.5653922267       -4.0656729604       -1.0120420919
  C        12.6385813545       -3.4598706303       -1.6859728725
  H        12.7284480569       -3.6056769903       -2.7820010416
  H        10.8948966919       -4.7368153323       -1.5045608356
  H        10.6722147241       -4.3899479771        0.9804385679
  H        12.5099927221       -3.3280881715        2.1223227221
  C        14.8731932401       -2.4302789820       -3.2000655640
  C        15.5291323856       -3.6613473147       -3.5924452061
  C        15.3506421515       -4.1503754149       -4.8755525628
  C        14.5633289662       -3.5263881092       -5.8452243640
  C        13.9783422305       -2.3050342088       -5.5002003406
  C        14.1378300225       -1.7283860331       -4.1690833980
  H        13.5711872369       -0.8556408272       -3.8353557876
  H        13.3021188832       -1.6808068465       -6.1334874031
  H        14.3369391658       -4.0283707517       -6.8380641355
  H        15.7708757997       -5.1672026968       -5.0427482242
  H        16.0326171723       -4.2181829642       -2.8656498911
  C        12.1333641513        6.1429633786        0.5071823299
  C        11.0989458405        6.8653427477        1.1721852468
  C         9.9642767758        7.3143623417        0.4356381381
  C         8.8138138125        7.9798681794        1.0362437730
  C         7.7049458016        8.3775698529        0.2448579452
  C        11.2571561640        7.1415689285        2.6169880482
  C        11.9843310778        8.2848000264        3.0159553979
  C        11.9886116896        8.7431315405        4.3111671641
  C        11.3441208021        8.0376544317        5.3687252176
  C        10.5702280301        6.9235633184        4.9993303575
  C        10.3885024461        6.5762543052        3.6399217400
  H         8.8086296561        8.2233797145        2.1355693075
  H         6.9462736160        8.9769314076        0.6618321069
  H        12.4784118656        8.8113260066        2.2144629134
  H        12.3631716260        9.7449726536        4.4095683698
  H        11.6055390931        8.2942280489        6.3396271593
  H        10.2394366898        6.3392684982        5.8346062849
  H         9.7898438033        5.6963244937        3.4432723568
  C        12.1698110589        6.0923783776       -0.9577338782
  C        13.2629883222        5.4147319760       -1.5664943188
  C        14.2848873831        4.9101449296       -0.8153137693
  C        14.1729275018        4.9309902043        0.6394668867
  C        13.0631958285        5.4236327190        1.2652247905
  C         9.9817816492        7.1929563536       -1.0357432248
  C        11.1131869773        6.7625034496       -1.7054671096
  C        11.1506547693        6.9172489332       -3.2341241040
  C        11.8314431215        8.0146975431       -3.8085182623
  C        11.7072208738        8.2978777057       -5.1627818274
  C        10.8389871366        7.5907325933       -5.9291491442
  C        10.2335561516        6.4744496313       -5.4213783027
  C        10.3322822944        6.1364748635       -4.0632946648
  H         9.8048031350        5.2684772669       -3.6777192908
  H         9.5732808220        5.8955047628       -6.0202970086
  H        10.7713302403        7.7936811239       -7.0201836023
  H        12.3743973488        9.0048772123       -5.6327067545
  H        12.5131441094        8.6164982549       -3.3056456018
  C         8.8569908810        7.7622084218       -1.8015581527
  C         7.7342945468        8.2521713644       -1.1708366240
  H         6.8284751458        8.5574728319       -1.7060684452
  H         8.8869056079        7.8380478822       -2.9342857183
  C        13.0054902597        5.0854441502        2.7558135714
  C        12.4704912398        3.8376975648        3.0486385736
  C        12.8476797815        3.1303766775        4.2082384746
  C        13.5705922640        3.7554174586        5.2344021077
  C        14.0359871966        5.0853160663        5.0086819736
  C        13.7884151036        5.6643846933        3.7730445567
  H        14.2635658864        6.5914660804        3.6665940670
  H        14.7054931200        5.5675590067        5.7825988459
  H        13.9039010282        3.4028910052        6.1525687277
  H        12.4495468644        2.1864663238        4.3515311302
  H        11.8977993314        3.3257093107        2.3054268391
  C        15.1574625408        4.2569687549        1.4179490468
  C        16.2194758689        3.6836976211        0.7546875088
  C        16.4057270599        3.7461102121       -0.6767405930
  C        15.4094195792        4.3247606734       -1.4714054357
  H        15.5016343520        4.3255444171       -2.5385716533
  H        17.2977899050        3.3184361855       -1.1041894850
  H        17.0071469660        3.2760850269        1.3906783861
  H        15.0978949674        4.1729663945        2.4304220225
  C        13.2391719078        4.8830657439       -2.9870016670
  C        12.5888405230        3.6981163470       -3.2295322908
  C        12.5292674970        3.0744437226       -4.4409741284
  C        13.1504233591        3.6318002302       -5.5486519131
  C        13.9297506021        4.7878534129       -5.3208810246
  C        13.9627874145        5.4177786558       -4.0582091788
  H        14.5089086172        6.3987884921       -3.9601467555
  H        14.3840770866        5.2866149497       -6.1756793571
  H        13.1131629004        3.2933497285       -6.6098145083
  H        11.9176074155        2.1895428746       -4.6098000018
  H        11.8565781561        3.2724136597       -2.3750840065
