140

  C        13.6702192079        0.5339859899        1.0977046384
  C        14.7014406085        1.1268447995        1.8824584349
  C        15.9201648820        1.4971180448        1.2233773123
  C        16.9573058085        2.1662201753        1.9046925378
  C        18.0846665138        2.6718684949        1.2107988880
  C        14.6179626461        1.5307868243        3.3585302294
  C        13.6182276171        2.4287976593        3.8268007760
  C        13.5070273680        2.7998738586        5.2155269945
  C        14.4173514954        2.1117615267        6.1023150453
  C        15.3960774857        1.2564141776        5.6634246493
  C        15.4302644432        0.9321478088        4.2970270409
  H        16.8762544303        2.2675098459        2.9609671691
  H        18.8946180819        2.9965335492        1.8015973971
  H        12.7933432849        2.7057931650        3.1900242980
  H        12.6406696008        3.4184202404        5.5054975841
  H        14.2824822976        2.3404690710        7.1693917286
  H        16.1937411772        0.8916639862        6.3345516124
  H        16.1131230408        0.1796640813        3.8886357851
  C        13.7270741445        0.5008111967       -0.3891583426
  C        12.6933084079       -0.2206748625       -1.0755832071
  C        11.5437315632       -0.6455358612       -0.3746674001
  C        11.4780539691       -0.5822051423        1.0605639235
  C        12.6188184340       -0.1858041635        1.7958661578
  C        15.9687804944        1.5294757866       -0.2563780033
  C        14.8569058930        1.0854000863       -1.0254354469
  C        14.7801138649        1.3862700138       -2.5627914860
  C        14.0559724042        2.4582652507       -3.1080178737
  C        14.0480380203        2.7324850010       -4.4832827231
  C        14.7412955891        1.9236458113       -5.3869967521
  C        15.4363205743        0.8541972048       -4.8142595972
  C        15.4650148073        0.5886947760       -3.4299303071
  H        15.9883894724       -0.2911608202       -3.0243580152
  H        16.0201621846        0.1748453831       -5.4681070549
  H        14.7385993677        2.2659333235       -6.4430494368
  H        13.5612450862        3.6441154161       -4.8669942595
  H        13.5704085877        3.0930509106       -2.3464270894
  C        17.0048499371        2.2090265645       -0.8891703988
  C        18.0601252449        2.6771020007       -0.2351177166
  H        18.7948990685        3.2458366390       -0.7794800868
  H        16.9773957230        2.2306438910       -2.0068641525
  C        12.8239613230       -0.6547123907        3.2326697676
  C        13.7833979522       -1.6028226476        3.4532955207
  C        14.0303810928       -2.1739300608        4.7008179988
  C        13.1520577659       -1.8142859822        5.7321463125
  C        12.1427637613       -0.8227234195        5.5391204204
  C        12.0132849670       -0.2051056640        4.2998632974
  H        11.3761910806        0.6274031275        4.2074307011
  H        11.5040509887       -0.5312492473        6.3337861299
  H        13.1827520460       -2.2081701462        6.7635706812
  H        14.8966256047       -2.8752848528        4.8035703216
  H        14.3571898124       -1.8697173328        2.5666479129
  C        10.3339390091       -1.0767219492        1.7228332611
  C         9.1873842356       -1.5579353896        1.0880468760
  C         9.2884658234       -1.7688541824       -0.3618083367
  C        10.4436057709       -1.3926441655       -1.0274546400
  H        10.4408780595       -1.5055021661       -2.0804693360
  H         8.5448107308       -2.3648619210       -0.8994179706
  H         8.3957034277       -2.0154724414        1.7536450312
  H        10.3849876283       -1.0007199334        2.7890045231
  C        12.7626834316       -0.6849940470       -2.4989359410
  C        13.6409594103       -1.6699348398       -2.8623597977
  C        13.5040197870       -2.4095228183       -4.0183493403
  C        12.3842567972       -2.0406316649       -4.9280242269
  C        11.5743928921       -0.9027253076       -4.6719242474
  C        11.8655525616       -0.2155997162       -3.4551339550
  H        11.1837333850        0.5874846147       -3.1720547897
  H        10.8557628363       -0.5691109461       -5.4124484950
  H        12.2242110180       -2.6812952085       -5.7606231383
  H        14.2809061564       -3.2140375070       -4.2245072074
  H        14.3197497667       -2.1321341376       -2.0864010607
  C         9.9692488484        7.5314620061        1.1257293657
  C         8.9856471590        8.4271721028        1.7778411260
  C         7.8877115964        8.8602786598        1.1338353896
  C         6.8006236605        9.4512397133        1.8133838510
  C         5.7500772581        9.9540213458        1.1771053540
  C         9.1122332746        8.8399741165        3.2249029498
  C        10.0573576815        9.8138504043        3.5152519903
  C        10.1254571107       10.2662951216        4.8538910695
  C         9.3928467520        9.7972545143        5.8982693882
  C         8.4275798789        8.8551612650        5.5340421867
  C         8.3044710405        8.3552759531        4.2269209419
  H         6.7818706042        9.5899312649        2.8603542888
  H         4.8963291074       10.2669597760        1.7126505838
  H        10.6030273053       10.3517175183        2.7288529349
  H        11.0005414202       10.9000019558        4.9323617698
  H         9.5047868308       10.1094022473        6.8961647858
  H         7.7571462064        8.4529935202        6.3560320148
  H         7.6264246105        7.5560647271        3.9575544837
  C         9.7740847426        7.3294186786       -0.3337662950
  C        10.7945418027        6.5276285011       -0.9521032818
  C        11.9790686172        6.1343918415       -0.2732098455
  C        12.0114370258        6.1448645358        1.1886523378
  C        10.9199885933        6.8344864246        1.8435712362
  C         7.7012386106        8.6650745550       -0.2545782993
  C         8.6984504475        7.9891896781       -0.9940303791
  C         8.7708432666        8.1985956955       -2.4506493778
  C         9.6408956231        9.2520633215       -2.9271254124
  C         9.7433106500        9.6660407997       -4.2131565954
  C         8.9005517545        9.0369311272       -5.1364622865
  C         8.0722394488        7.9758551924       -4.7570777566
  C         7.9306638875        7.5825933083       -3.4260967692
  H         7.1419281312        6.8729657613       -3.1498555138
  H         7.2302962214        7.7464037345       -5.4245456176
  H         8.8903094684        9.3948681596       -6.1562633251
  H        10.3013920164       10.5751237748       -4.4689082424
  H        10.2568246550        9.7063812221       -2.1760249300
  C         6.5355699846        9.1560363702       -0.9936271916
  C         5.5566837249        9.7409681806       -0.2686959687
  H         4.6044560494       10.1992475714       -0.5918094585
  H         6.5585813507        8.8430922988       -2.0026654680
  C        10.9969517744        6.7123070161        3.3165132177
  C        10.3109065752        5.5624287056        3.7251316513
  C        10.4987998585        5.0158289403        5.0038712415
  C        11.3322995020        5.6968969456        5.8752512861
  C        12.0684477992        6.8719462305        5.4442076567
  C        11.9260014234        7.3436046236        4.1596900809
  H        12.3970662589        8.2427767381        3.7688642845
  H        12.8160989826        7.3323308427        6.1388563584
  H        11.5004390470        5.4163064533        6.9072812567
  H        10.0993259658        4.0027242276        5.2788119754
  H         9.6505270095        5.2187709644        2.9524732474
  C        13.1221244921        5.5757763396        1.8477765491
  C        14.2104993441        5.0756105178        1.1533315239
  C        14.0724978735        4.9239951520       -0.2400925904
  C        12.9611259972        5.4117530103       -0.8825545492
  H        12.8133383750        5.1980515434       -1.9741543866
  H        14.8247694319        4.4118598577       -0.8257624108
  H        15.0756529364        4.5775057387        1.6691346916
  H        13.1963876578        5.6443754976        2.9553577387
  C        10.7972538704        6.1673613969       -2.4172519009
  C        10.0853509092        5.0535184882       -2.8879876756
  C        10.1830466929        4.6518787313       -4.1946912660
  C        11.0960803332        5.2433786844       -5.1576506973
  C        11.7879554695        6.3555193296       -4.7211997153
  C        11.6001241154        6.8166368543       -3.3897684850
  H        12.0791889476        7.6710481030       -3.0546384964
  H        12.3339967254        7.0104718080       -5.4251946596
  H        11.0022541996        4.8950493970       -6.1866218148
  H         9.5432523368        3.8471484833       -4.5127934175
  H         9.4458590688        4.5748894548       -2.1301981894
