140

  C        16.2936563330       -0.3171824410        2.5633514667
  C        17.3015831043        0.3096258839        3.3101026346
  C        18.3538986117        0.9237546379        2.5933646818
  C        19.3611494858        1.6370093826        3.3160875315
  C        20.3223114396        2.4058855915        2.6864052839
  C        17.2456396980        0.5889944539        4.8230090862
  C        16.5690135431        1.7406226800        5.1681775075
  C        16.5899527322        2.2592197871        6.4435367129
  C        17.3194670148        1.6056975400        7.4312011116
  C        17.9724937374        0.3812734002        7.1233707981
  C        17.8797134783       -0.1396090990        5.8159955164
  H        19.4340229843        1.4730980713        4.3922679965
  H        21.0999027351        2.8911231838        3.2307654832
  H        16.0453341146        2.2304979704        4.3775226515
  H        16.1139203630        3.1287392283        6.7221047178
  H        17.3407621537        1.9653430886        8.4209630141
  H        18.5674767762       -0.1137159102        7.8465745795
  H        18.5402491111       -0.9217528321        5.5695819275
  C        16.3272352806       -0.2532361121        0.9907159632
  C        15.2195079341       -0.8522703371        0.2702974733
  C        14.1721379171       -1.4969525233        0.9430095678
  C        14.1477991721       -1.5681955457        2.3625680582
  C        15.2100454284       -1.0735063976        3.1617629904
  C        18.4212891328        1.0302136771        1.1468188863
  C        17.3803158336        0.4634367994        0.3858398204
  C        17.4254574331        0.9041955539       -1.0429145723
  C        16.6804603940        2.0043772079       -1.4685991638
  C        16.7203070522        2.3871951360       -2.7952521762
  C        17.4282107592        1.7017308294       -3.7550206663
  C        18.1183303057        0.5659135933       -3.3605567366
  C        18.1847937016        0.1703416644       -2.0001909021
  H        18.7066558291       -0.6995972224       -1.6483383846
  H        18.7371817461        0.0042183115       -4.0864182587
  H        17.4275316228        2.0014328311       -4.8090101310
  H        16.2588264049        3.3583169804       -3.1561424263
  H        16.2564283580        2.6210281426       -0.7002709643
  C        19.4748317267        1.8306036665        0.4581698296
  C        20.4046827086        2.3832186008        1.2618029890
  H        21.1561865668        3.0611813584        0.7199148735
  H        19.4036793947        2.0349926248       -0.6498293937
  C        15.1845249325       -1.3345221118        4.6738422768
  C        15.6010221950       -2.5822755624        5.1126702081
  C        15.4149457909       -3.0033714233        6.4538109719
  C        14.7168531905       -2.1934059811        7.3891090750
  C        14.3869063598       -0.9100312113        6.9435976971
  C        14.6274216764       -0.4568744249        5.6484234432
  H        14.2791674558        0.5229153621        5.3562939507
  H        13.8085459944       -0.1983656310        7.6263987544
  H        14.5126637641       -2.4748407166        8.4164990786
  H        15.8573589639       -4.0136869984        6.7576593292
  H        16.1985325727       -3.2789641315        4.5401411046
  C        13.0022265819       -2.2125344642        3.0154285717
  C        11.9622547527       -2.7087228844        2.2668810825
  C        11.9700090888       -2.6919161624        0.8931870352
  C        13.0346171965       -2.0974978670        0.2391105617
  H        12.9739960029       -2.1216438891       -0.8448313682
  H        11.3213454394       -3.2828302870        0.3166367172
  H        11.1225072010       -3.1907234747        2.7842002064
  H        13.0474429950       -2.3554535904        4.0953763715
  C        15.3687383058       -1.0992658916       -1.2070345068
  C        16.0959081792       -2.2498214861       -1.6441958389
  C        15.9454666047       -2.9068698115       -2.8768609160
  C        14.8656721707       -2.5046206616       -3.6911650668
  C        14.1967403837       -1.3348036252       -3.3628158317
  C        14.3762523128       -0.7484436432       -2.0926279508
  H        13.6646060986        0.0028492671       -1.9158103005
  H        13.3773025534       -0.9442759421       -3.9329926722
  H        14.7786956986       -2.9938065339       -4.6205393673
  H        16.5739152214       -3.7223729941       -3.0562935174
  H        16.9347288001       -2.5508815843       -1.0430726903
  C        12.6463600863        7.1119903613        2.7442022774
  C        11.7140238450        7.8902000455        3.4384206671
  C        10.5800092863        8.4491114844        2.7601990420
  C         9.6010225909        9.2355898199        3.4660281185
  C         8.5343826700        9.8521191832        2.8908933275
  C        11.7453209969        8.2231272287        4.8765678828
  C        12.4932840542        9.3821620657        5.2277824060
  C        12.3899091925        9.8983713208        6.5172315601
  C        11.6143934575        9.2001643696        7.4784219672
  C        10.8578047283        8.0536280765        7.0847172487
  C        10.8869484471        7.5767990011        5.7745206627
  H         9.6678639748        9.2292983606        4.5416137611
  H         7.6958075695       10.1651042941        3.5180007144
  H        12.9746431672        9.8533243436        4.4006270430
  H        13.0389878091       10.7390038705        6.8262625887
  H        11.4723368560        9.5180191427        8.4595139250
  H        10.1548072087        7.6359725700        7.8121214956
  H        10.2595832259        6.7780093159        5.5077777008
  C        12.5773962305        7.0820217840        1.2453576907
  C        13.6471680724        6.3937739116        0.5272226224
  C        14.7081076937        5.7988739725        1.2690952224
  C        14.7363424131        5.7636679503        2.7242582840
  C        13.6587623328        6.3653247088        3.3884555383
  C        10.4477365958        8.3227893980        1.3055131088
  C        11.4596209789        7.7223378984        0.5799969696
  C        11.4938866775        7.9281449615       -0.9055712124
  C        12.3204320986        8.9735570753       -1.3691811314
  C        12.3914048315        9.3008819724       -2.7441161923
  C        11.6283795303        8.5687189560       -3.6594117930
  C        10.8303731630        7.5407323362       -3.2142042255
  C        10.7444782073        7.1908215704       -1.8786401956
  H         9.9918652624        6.4801402854       -1.5822635264
  H        10.3014950478        6.9735871994       -4.0020525021
  H        11.8452213697        8.6733077716       -4.7235978226
  H        12.9525596459       10.1727741372       -3.0020177879
  H        12.9092366630        9.4528156674       -0.5981582443
  C         9.2798565066        9.0368293223        0.7649163934
  C         8.3864107648        9.7349058724        1.5053485767
  H         7.5938818836       10.2408083514        0.9646498855
  H         9.0982547828        8.9359883800       -0.3085619472
  C        13.4332000982        6.0184657161        4.7989652629
  C        12.5060389613        5.0157568072        5.0357829314
  C        12.3067328193        4.5248089334        6.2515501395
  C        13.1142325195        4.9883295432        7.2728159884
  C        14.0313469494        5.9915761482        7.1314085922
  C        14.1636703839        6.5250706209        5.8542521353
  H        14.8606440797        7.3318397331        5.6751288374
  H        14.7089288799        6.3420000411        7.9145931594
  H        12.9631311374        4.4974894426        8.2231714507
  H        11.7431777256        3.5863840128        6.4554247632
  H        12.0537177396        4.5953530451        4.2028813963
  C        15.7811035109        5.0373245497        3.3025643904
  C        16.7435974112        4.3815074392        2.5833534493
  C        16.7123284009        4.3873603131        1.1768879984
  C        15.6069622484        4.9982341726        0.5468174851
  H        15.6741100817        4.9314695885       -0.5345186021
  H        17.2959105451        3.6438104937        0.5939903616
  H        17.6402374729        3.9425000534        3.0518411723
  H        15.8205913894        4.8687075991        4.4011194105
  C        13.5657980756        6.0408346780       -0.8748942362
  C        12.6739137072        4.9857736161       -1.1975254065
  C        12.6382196216        4.5615491032       -2.5372840204
  C        13.4310324205        5.1433239941       -3.4798716495
  C        14.3519361200        6.1203716351       -3.1171842401
  C        14.3896402011        6.5947508362       -1.7984516896
  H        15.0597535485        7.3941135055       -1.3887545363
  H        15.0290583378        6.5858679497       -3.9345688681
  H        13.4492461854        4.6863309855       -4.4424044749
  H        11.9426966033        3.7433414641       -2.8201144693
  H        12.0850855232        4.5230100604       -0.4059642022
