140

  C        14.3706271174       -0.0572674238        1.2184138806
  C        15.4366245124        0.6513863908        1.8710202173
  C        16.4207540593        1.3130540590        1.1180005678
  C        17.3205687897        2.1616522231        1.8041335614
  C        18.3216357471        2.7239913328        1.0952026765
  C        15.3377118037        1.1497744979        3.3065929036
  C        14.3361513060        2.1254400786        3.7325964290
  C        14.4033680442        2.7814961887        4.9227024785
  C        15.3067635965        2.4060708107        5.9675813160
  C        16.2736666391        1.4901026166        5.6734051146
  C        16.3236596835        0.9098222702        4.3317063459
  H        17.1556935125        2.2726955549        2.8885006735
  H        19.0200476528        3.3848426777        1.6105591450
  H        13.5973686061        2.4540908392        2.9708471975
  H        13.6233808146        3.4886669794        5.1387960945
  H        15.3056214282        3.0424235261        6.8542286542
  H        17.0950251007        1.1975390722        6.3123637075
  H        17.1799701314        0.3195730606        3.9526007183
  C        14.4174589846       -0.1220772087       -0.2523213135
  C        13.4285248779       -0.9100393991       -0.9476973925
  C        12.3341389138       -1.4259504607       -0.2990762010
  C        12.1998823058       -1.3024780435        1.0956040037
  C        13.2482720212       -0.7281512594        1.8646704394
  C        16.3833473737        1.2728015263       -0.3495023000
  C        15.3802653408        0.6165261979       -0.9994105972
  C        15.2374397160        0.9768862951       -2.4494331175
  C        14.1485220887        1.8391351040       -2.8498683833
  C        14.0086167159        2.2874999076       -4.1836416712
  C        14.9084661431        1.8116674528       -5.1680607786
  C        15.9492933779        0.9786552947       -4.7946359453
  C        16.1876076674        0.6719269564       -3.4477229696
  H        17.0903689520        0.1101543825       -3.1941844685
  H        16.6907207608        0.6558618832       -5.5373401626
  H        14.9944274211        2.1591417788       -6.1727465532
  H        13.2533914948        3.0128919291       -4.4662148499
  H        13.3553409176        2.0975048926       -2.1516712053
  C        17.4527810983        1.9235607902       -1.0515923840
  C        18.4832909636        2.4325165474       -0.3084330126
  H        19.3540295419        2.8022581069       -0.8489763394
  H        17.5113852419        1.8911636460       -2.0927849207
  C        13.3861905277       -1.0336982367        3.3343845136
  C        14.4276840147       -1.8770842741        3.7095218812
  C        14.6338390698       -2.2959981349        5.0384485448
  C        13.7804066667       -1.7301577114        6.0443231365
  C        12.7556850166       -0.8664563481        5.6112834496
  C        12.5048727049       -0.5137805314        4.3075717068
  H        11.6184048945        0.1207747817        3.9581700558
  H        12.1263683478       -0.5173137940        6.4438722252
  H        13.9282961323       -1.9202202352        7.1031694959
  H        15.3913666729       -2.9838385521        5.2739873138
  H        15.0939109074       -2.3111042691        2.9651615332
  C        11.0301047698       -1.8313047335        1.7165971464
  C        10.1294776891       -2.5513008259        1.0267425725
  C        10.2205822154       -2.6178543133       -0.4344318138
  C        11.3116718953       -2.1747718735       -1.0945995319
  H        11.4751213689       -2.4089813990       -2.1572861703
  H         9.4598253478       -3.2414588898       -0.9093536920
  H         9.2142725717       -2.9060243968        1.5695817672
  H        10.9571008814       -1.8137785581        2.7890184548
  C        13.6193780505       -1.3463377020       -2.3874694698
  C        14.5903723133       -2.2426172337       -2.7640123130
  C        14.6826207168       -2.7611912701       -4.0883872441
  C        13.6370564654       -2.4742827383       -4.9550107780
  C        12.6958589991       -1.4259845682       -4.6826765170
  C        12.7614128765       -0.8411272650       -3.4038458848
  H        12.0333827580       -0.0755698449       -3.1093870275
  H        11.9807920239       -1.2480278015       -5.5052103200
  H        13.6431489409       -2.8411027891       -5.9545260629
  H        15.5004172767       -3.4212565200       -4.3672300507
  H        15.3870166205       -2.5018852258       -2.1429737533
  C        10.7513450431        7.1908165199        1.2401801257
  C         9.6601055205        7.8428610022        1.9750866248
  C         8.5590811474        8.5053550221        1.2483840045
  C         7.6111553208        9.2826397223        1.8939622218
  C         6.5099351470        9.7632592376        1.0984487451
  C         9.7527594753        8.3329421768        3.3948366240
  C        10.6647185120        9.3241345178        3.6193355838
  C        10.9183095510        9.7910400964        4.9130089209
  C        10.1713085327        9.2998771530        5.9825350220
  C         9.2195574255        8.2494220204        5.7562088630
  C         9.0291840282        7.7706177885        4.4748299473
  H         7.6347944660        9.5042932114        3.0164119108
  H         5.8240635644       10.3864500536        1.6763065446
  H        11.2563717058        9.7114669223        2.7603299757
  H        11.7661699476       10.4551810384        4.9554116206
  H        10.2364714380        9.6961162690        7.0570774567
  H         8.6539735327        7.8737137631        6.5974794012
  H         8.3688654104        6.9925681595        4.3464505592
  C        10.6998586236        7.1913492672       -0.3015517127
  C        11.6259141232        6.3666342143       -0.9695371915
  C        12.7366845421        5.8123107371       -0.1844310334
  C        12.7654702360        5.8569535849        1.2891742152
  C        11.6894561632        6.4777555526        1.9881580084
  C         8.4767566389        8.4043617052       -0.2063574855
  C         9.5777270630        7.8462093219       -0.9474592999
  C         9.4897985407        8.1694625820       -2.4388504420
  C        10.3621014577        9.2059746016       -2.8731792715
  C        10.3047888931        9.5228215210       -4.2329768029
  C         9.3037857712        8.9812479155       -5.1421598711
  C         8.4655686966        7.9311924819       -4.6321230126
  C         8.6276826224        7.4884838683       -3.2819102996
  H         8.0307055831        6.6626729664       -2.8940217904
  H         7.6414090108        7.4582851030       -5.2459734099
  H         9.2968339522        9.2916494505       -6.1738624849
  H        10.9329313805       10.3484290021       -4.5576787211
  H        11.0847985028        9.6569466085       -2.1965642715
  C         7.2540677181        8.8029812837       -0.8953692818
  C         6.2749994905        9.4322702100       -0.2587536406
  H         5.5372210392        9.9653342623       -0.8143939468
  H         7.2079212073        8.5698986572       -1.9268700314
  C        11.5929043264        6.2011062143        3.4489698485
  C        10.5965113409        5.2468341269        3.8431805010
  C        10.5844926433        4.9254954373        5.2130850551
  C        11.3351558554        5.5960336299        6.1847334704
  C        12.4502081574        6.3115595583        5.7291434762
  C        12.5728110237        6.6678862097        4.3750149274
  H        13.2642752275        7.4112920323        4.0379530878
  H        13.1010761009        6.7933144049        6.4792668856
  H        11.0861709605        5.2892366524        7.2110609796
  H         9.7797574090        4.3243118955        5.5544722133
  H         9.8579701681        4.8071313550        3.1932774547
  C        13.8675238340        5.1178874965        1.8859505274
  C        14.7969804226        4.3655726851        1.1581306246
  C        14.6926209512        4.3455375315       -0.2345256525
  C        13.7403675552        5.0615267834       -0.8960221074
  H        13.5944814155        4.9522359234       -2.0132952164
  H        15.3570890638        3.7420229875       -0.8027357116
  H        15.5228603144        3.7131390656        1.5808053654
  H        13.9853465611        5.0172552628        2.9914608909
  C        11.4802376153        6.0713201725       -2.3934582719
  C        10.8181320648        4.8463763023       -2.6082417108
  C        10.6525045063        4.3816120203       -3.9136949869
  C        11.0639206207        5.1073790001       -4.9927818335
  C        11.7047893019        6.3844627045       -4.7730089269
  C        11.9581073885        6.8122596419       -3.4767197518
  H        12.4555339208        7.8188591446       -3.2536526769
  H        12.0813338689        6.9216267740       -5.6232348289
  H        11.0454953821        4.8798122944       -6.0513519585
  H        10.2086854583        3.4272020342       -4.0227908301
  H        10.3686989384        4.3221384027       -1.7879761589
