140

  C         4.7904781900       -1.4268843413       14.0857939932
  C         5.8264996081       -0.7530689146       14.7935298963
  C         6.9105050643       -0.1277402380       14.0859241325
  C         7.9106834258        0.5682264988       14.8061259183
  C         8.9056756308        1.2483683262       14.1662177033
  C         5.6869907888       -0.3818728745       16.2499724448
  C         4.8617990680        0.6771760997       16.6427989215
  C         4.8410775343        1.0766086140       17.9593383351
  C         5.7322048869        0.5590874268       18.8786148096
  C         6.4941045986       -0.5210675574       18.4610870046
  C         6.4341516363       -1.0675874530       17.1817260896
  H         7.7496271157        0.7225015030       15.8354553314
  H         9.6538429170        1.8411292884       14.6658482376
  H         4.1853105839        1.2364635251       15.9703832434
  H         4.3247729574        1.9617898241       18.2875515647
  H         5.6979055171        0.9536512077       19.8620715874
  H         7.0243745975       -1.0740147124       19.1905872909
  H         6.9585039769       -1.9699281399       16.8037146641
  C         4.8432995769       -1.4793936545       12.5447617689
  C         3.7442501461       -2.0708405039       11.8440763808
  C         2.5940748329       -2.5513101030       12.5450363941
  C         2.6388858119       -2.5672007000       13.9480659846
  C         3.7467526179       -2.1250392464       14.7378281907
  C         6.9551057625       -0.1815484744       12.6429554644
  C         5.8611208755       -0.6961718525       11.9219319245
  C         5.7359307593       -0.2841258365       10.5037566578
  C         4.9721063542        0.8299896104       10.2396006128
  C         4.7819785424        1.2577711488        8.8821798209
  C         5.5440359341        0.7178154255        7.8120666654
  C         6.3885683093       -0.3452904374        8.1299797767
  C         6.4933613417       -0.8067321168        9.4495670936
  H         7.1815264898       -1.6685076084        9.4863248159
  H         7.0975319401       -0.7426848016        7.4379771876
  H         5.5671370366        1.1705066977        6.7965390560
  H         4.1917127508        2.2008436753        8.7323057511
  H         4.4627009437        1.2142865652       11.1019488999
  C         8.0516628372        0.5037521690       12.0073130116
  C         9.0152781890        1.1979202251       12.7449974316
  H         9.7151949345        1.9021490656       12.2648665014
  H         8.0950002093        0.3942467307       10.8978232402
  C         3.7994384404       -2.6158601470       16.1819995759
  C         4.6403787615       -3.6694901053       16.5079905435
  C         4.7065286451       -4.2134554080       17.7643184952
  C         4.0059249851       -3.6576611699       18.7820661766
  C         3.1928772220       -2.5296591872       18.5044068642
  C         3.0534096102       -2.0208106392       17.2302904197
  H         2.5246767851       -1.1125180490       17.1332838606
  H         2.5136325537       -2.1693512581       19.3081230773
  H         4.1042324054       -3.9689733396       19.8310017064
  H         5.4312935953       -5.0447796736       17.9508855525
  H         5.1446485775       -4.2785245050       15.6596817387
  C         1.6212923835       -3.2132075437       14.6797954409
  C         0.5307982482       -3.7766483430       14.0191123126
  C         0.4296310312       -3.6855823381       12.6602505609
  C         1.4513125344       -3.0799244860       11.9134278410
  H         1.3128003460       -3.1022101192       10.8671320922
  H        -0.4279576083       -4.2146451155       12.2652708821
  H        -0.2314553168       -4.3383013707       14.5367969626
  H         1.7490546358       -3.2709125523       15.7456312090
  C         3.7673478976       -2.3326258651       10.3283311134
  C         4.6974657947       -3.2490594633        9.7932774931
  C         4.6260715685       -3.5757516602        8.4338930077
  C         3.6364199554       -3.0392040581        7.6360201848
  C         2.9120707213       -1.9183454280        8.0732463410
  C         2.9151801427       -1.6010173292        9.5078056529
  H         2.2674632716       -0.8261965357        9.9090961624
  H         2.1641147460       -1.3971969865        7.4767200905
  H         3.6211005332       -3.2900249030        6.5603198874
  H         5.3182313145       -4.2554751450        7.9645039916
  H         5.4391765205       -3.6922976560       10.4506122326
  C         1.2317433814        6.0375824598       13.8883941517
  C         0.2147898019        6.6576100822       14.6244171066
  C        -0.8997237187        7.1980028903       13.8426889622
  C        -1.9279122172        7.9731088989       14.4556961300
  C        -2.8757815604        8.5730268928       13.6667091213
  C         0.2474230755        7.0705495284       16.0430753233
  C         1.1130388971        8.1541553090       16.4121517303
  C         1.2469193555        8.6227297752       17.7513449036
  C         0.3044420405        8.1530785146       18.6681708302
  C        -0.5587093927        7.1193315559       18.3763441919
  C        -0.5767155573        6.5990246549       17.1045935742
  H        -2.0756173317        8.0590249195       15.5170220325
  H        -3.7159566002        9.0311956923       14.1741502922
  H         1.7062531955        8.7235187042       15.7170908887
  H         1.8737634521        9.4557598118       17.9676685394
  H         0.3785362477        8.5085844896       19.7028653239
  H        -1.2697521124        6.7921320999       19.1332733289
  H        -1.1324958569        5.6792711798       16.7702810865
  C         1.2190389399        5.9659397199       12.4005019378
  C         2.2402896857        5.2305275082       11.7441187296
  C         3.3666990847        4.6679347429       12.4152986473
  C         3.3811190042        4.6853659100       13.8519942615
  C         2.2848519435        5.2211765061       14.5521856284
  C        -0.8558649685        7.2491439040       12.3940154217
  C         0.2397452253        6.7373015106       11.6778128757
  C         0.3938611148        7.1464378338       10.2605611659
  C         1.2155330627        8.2789949592       10.0385189453
  C         1.3416969727        8.7821940707        8.7441757180
  C         0.5903884264        8.1966984744        7.7228410637
  C        -0.0730719451        6.9875917664        7.8811036212
  C        -0.1149695335        6.4092412590        9.1675572951
  H        -0.7518879783        5.5588347206        9.3395348263
  H        -0.5353868031        6.5658352788        7.0114001746
  H         0.5594778590        8.6624686448        6.7276507358
  H         1.7533063882        9.7983991966        8.5036704401
  H         1.7363850528        8.8599042782       10.8294769934
  C        -1.9439486038        7.8276971664       11.6095822482
  C        -2.9485070272        8.5139372090       12.2200464105
  H        -3.6991595094        8.9814628273       11.6760043671
  H        -1.9275457300        7.7785942695       10.5313535805
  C         2.1241526133        4.8085513737       16.0017823978
  C         1.2295857171        3.8247405556       16.4583579787
  C         1.2818270909        3.4140260568       17.7526706467
  C         2.1894783229        3.9835133171       18.6771421879
  C         3.0779331716        4.9932600088       18.1958859051
  C         2.9893834585        5.4645913064       16.9065274162
  H         3.6075906576        6.2913945744       16.5192349716
  H         3.6987671857        5.4937033879       18.8792875615
  H         2.1392610132        3.6752328298       19.7186912030
  H         0.5940019387        2.6352194944       18.0887506830
  H         0.5386851290        3.5202731730       15.6918395752
  C         4.5876755576        4.1340427581       14.4652751038
  C         5.6249674052        3.6484606786       13.7185718498
  C         5.5662352702        3.6378551189       12.2775875643
  C         4.4376451080        4.0607366932       11.6833786951
  H         4.3353149112        4.0593273484       10.5626509431
  H         6.3562155924        3.2306804903       11.6567023962
  H         6.5064129784        3.3662776146       14.2320989602
  H         4.6545368224        4.2302454974       15.5387479390
  C         2.1657376471        4.8540374454       10.2686124380
  C         1.2887688663        3.7954186463        9.9616170604
  C         1.2006519647        3.1906120795        8.7097992836
  C         2.0839315837        3.5437132594        7.7425280663
  C         2.9369431761        4.6584239002        7.9688783209
  C         2.9942688162        5.2402565492        9.2000129049
  H         3.6914473029        6.1027069724        9.3228396766
  H         3.6505292925        4.9842204123        7.1664506949
  H         2.0842246626        3.0819627311        6.7527672676
  H         0.5714242528        2.3225665072        8.5708627670
  H         0.6350150433        3.4573480817       10.7322694733
