140

  C        14.8201974037       -0.1118046737        0.8521275096
  C        15.9600266842        0.5483273518        1.4538475208
  C        17.0604341316        1.1024542221        0.6999606299
  C        18.1018055401        1.9458482442        1.2595211973
  C        19.1083301229        2.5141506283        0.4927224530
  C        15.9863307579        0.9355494865        2.9306881391
  C        14.9622384516        1.8545300582        3.3174369179
  C        15.0097699798        2.2673547678        4.6633841859
  C        15.9317332955        1.7003413055        5.5668732114
  C        16.9662040967        0.8822064882        5.0665702131
  C        16.9874955060        0.5058047535        3.7586394172
  H        18.1984522888        1.9937650353        2.3648616969
  H        19.8111306582        3.1500668762        0.9268858067
  H        14.1699065494        2.0259735663        2.6537604863
  H        14.2736514738        3.0082223590        5.0013299862
  H        15.8739940330        1.9726482435        6.6341153349
  H        17.7257777045        0.7220605438        5.7635673897
  H        17.6754168286       -0.3492104075        3.4338747421
  C        14.7497494247       -0.1930329228       -0.6232681407
  C        13.7053756746       -0.8304217376       -1.3475620068
  C        12.5843360090       -1.3551693091       -0.6376237386
  C        12.6585360819       -1.2915229804        0.8714389335
  C        13.8222432406       -0.8535417474        1.5192643544
  C        16.9414438098        1.0477972144       -0.7273493694
  C        15.8054855017        0.4363721719       -1.3086750544
  C        15.6843515484        0.7053776211       -2.8071767874
  C        14.6617739864        1.6040612521       -3.2116337161
  C        14.4302719290        1.8180715401       -4.5623425256
  C        15.2054824178        1.1795110664       -5.5338757966
  C        16.2262395598        0.2634157271       -5.1430857880
  C        16.4496270443        0.0684698728       -3.7880344887
  H        17.1697849373       -0.7274308147       -3.4811018003
  H        16.8242765253       -0.2542503533       -5.9017959449
  H        15.0607824375        1.3595971770       -6.6139082074
  H        13.5269215636        2.3698775376       -4.8393693824
  H        14.1923342336        2.2403946310       -2.4641292026
  C        18.0093686360        1.6754437901       -1.4844387113
  C        19.0394074800        2.4449040404       -0.9448096581
  H        19.8464864014        2.7827439949       -1.5897390384
  H        17.9173085520        1.7043114542       -2.5406057163
  C        14.0028150902       -1.2007900638        2.9874549555
  C        14.9349548970       -2.1878791618        3.3780044654
  C        14.9623402598       -2.6811817664        4.7084808504
  C        13.9865835751       -2.1007845907        5.6540693322
  C        13.1527079160       -1.0773177311        5.2856756800
  C        13.1353486701       -0.5999760365        3.9814660929
  H        12.6321474021        0.2751884736        3.7502830948
  H        12.3950833082       -0.6914266570        5.9836621343
  H        14.0685689859       -2.3918918655        6.6405176717
  H        15.6002663012       -3.5429092865        4.8980031980
  H        15.5231967094       -2.7835008266        2.6398843948
  C        11.5830188611       -1.9162489064        1.5779968655
  C        10.5063419677       -2.5445317567        0.9349454610
  C        10.4636940513       -2.5595064841       -0.4832258178
  C        11.4786918983       -2.0439255287       -1.2604484334
  H        11.3526425802       -2.2350351406       -2.3258739398
  H         9.5976460026       -3.0428016593       -0.9435041000
  H         9.7592511341       -3.1256765128        1.4738468006
  H        11.6673579880       -1.9504363928        2.6594080128
  C        13.8091429938       -1.4329796590       -2.6917790563
  C        14.7010280504       -2.4191492296       -2.8741055520
  C        15.0047466169       -2.8888114459       -4.1886114964
  C        14.3153201743       -2.4053591404       -5.3096825192
  C        13.2728053671       -1.4444595071       -5.0664958353
  C        13.0610196232       -0.9393487363       -3.7932898592
  H        12.2543785656       -0.1741189195       -3.5864835313
  H        12.6255181411       -1.1498884262       -5.8950483565
  H        14.6170740773       -2.7275122722       -6.2946564349
  H        15.8202599919       -3.5835476292       -4.2960992069
  H        15.3113160875       -2.8812483572       -2.1176093769
  C        11.1683375098        6.9328340673        0.8390692137
  C        10.1802858414        7.7565209893        1.5260829719
  C         8.9266594405        8.0646782300        0.8881471543
  C         7.8104781688        8.6842205844        1.5174705810
  C         6.7363245824        9.0617163716        0.8037950424
  C        10.3498992209        8.2207644961        2.9315559948
  C        11.1041446480        9.3816672668        3.2759479780
  C        11.2366073964        9.7487393221        4.5926584541
  C        10.4884021198        9.1327867540        5.6966789929
  C         9.7353869414        8.0514560353        5.2936815885
  C         9.6274801909        7.5979634838        3.9618657247
  H         7.7924965226        8.6486056986        2.5452001264
  H         5.9329336824        9.5487827255        1.2507656174
  H        11.7815228250        9.8706538291        2.5846628528
  H        11.8802008245       10.5540253022        4.8663216781
  H        10.6988620074        9.5639834627        6.7251764115
  H         9.0868861016        7.4563569374        6.0073099104
  H         8.9470496700        6.8019558947        3.7024209461
  C        11.0165634597        6.8449361796       -0.6783362925
  C        12.0195831647        6.1460289004       -1.3993845417
  C        13.1774504176        5.6300867809       -0.7046858210
  C        13.2377764865        5.6835470319        0.7322942794
  C        12.1957702467        6.2603272098        1.5320672738
  C         8.8584661787        7.9811560809       -0.6269282482
  C         9.9260318228        7.4773174743       -1.3722232310
  C         9.8742541159        7.8849365323       -2.8217543593
  C        10.6478949869        8.9623460424       -3.2396733451
  C        10.5723883705        9.3914350761       -4.5225612108
  C         9.8905243544        8.6188258945       -5.4767458594
  C         9.3193281663        7.4137872707       -5.1188644478
  C         9.3444313798        7.0124640286       -3.7660075981
  H         8.8750801975        6.0767703936       -3.4076697896
  H         8.8935538147        6.8239230602       -5.8853336047
  H         9.9356370883        8.8798790276       -6.4926126820
  H        11.0723643988       10.2727078854       -4.8924525607
  H        11.1851644556        9.4562491387       -2.4453290617
  C         7.7870880271        8.6186717281       -1.3255072445
  C         6.6782530142        9.0825883213       -0.6287950862
  H         5.7949963034        9.3897846777       -1.2155358987
  H         7.7887923919        8.8687060062       -2.3615792580
  C        12.3312638722        5.9206526197        2.9490697811
  C        11.3510859359        4.9678678351        3.3476282868
  C        11.2414244300        4.4847118854        4.6269191704
  C        12.0184771125        4.9885113285        5.6483490678
  C        13.0329402276        5.9088204647        5.3366392872
  C        13.1755755100        6.3787222029        3.9731234108
  H        13.9049250739        7.1757895752        3.7518486465
  H        13.6210613337        6.4933732494        6.0447427399
  H        11.8020067268        4.6276710794        6.6719187278
  H        10.4971411676        3.7097991569        4.7221714915
  H        10.6172665312        4.7629082983        2.6314842276
  C        14.2700545814        4.7902830627        1.3163516832
  C        15.2316443602        4.2962944251        0.5095154728
  C        15.3069408341        4.4754485892       -0.9163709773
  C        14.2405680471        5.1114266236       -1.4985593556
  H        13.9879676559        5.1434154685       -2.5302465832
  H        16.1707867479        4.1326827020       -1.3893922632
  H        16.0021813277        3.6625270260        0.9839195973
  H        14.1792857476        4.6574029388        2.3586365883
  C        11.8324657966        5.7046947146       -2.7896170015
  C        11.1564005881        4.4609055636       -2.9806637455
  C        10.9609479843        3.9266142524       -4.2852383080
  C        11.5600067410        4.5871193685       -5.3661404137
  C        12.3284268000        5.7260002405       -5.1526036182
  C        12.3058004112        6.3258412059       -3.9437612473
  H        12.8240055662        7.3518879960       -3.8019744250
  H        12.9274012529        6.1316977700       -5.9524599739
  H        11.5651372345        4.2618374571       -6.4405509693
  H        10.4985740691        2.9368921020       -4.3563548150
  H        10.5659628063        4.0626423185       -2.1273531515
