140

  C        15.4281859258       -1.0346576573        0.4777306897
  C        16.4920094816       -0.3315925306        1.1753380989
  C        17.6447521584        0.1277868003        0.4717656689
  C        18.7309301219        0.8083027879        1.0924370251
  C        19.7104638313        1.4946818815        0.4038637713
  C        16.3522398974        0.0068357890        2.6543893491
  C        15.3169274962        0.8420913670        3.0289462418
  C        15.2011941916        1.3151372151        4.3144559539
  C        16.1637284781        0.9107681723        5.2736503335
  C        17.1710061339        0.0616541082        4.9117292196
  C        17.3097563525       -0.4090696533        3.5979529246
  H        18.8120331578        0.8801671779        2.1862626822
  H        20.4691486592        2.0741203546        1.0107091629
  H        14.6571256634        1.1318790774        2.3057974601
  H        14.4717016896        2.1784015387        4.4759269141
  H        16.1115394834        1.2039897388        6.3154961617
  H        17.9122424756       -0.2593938352        5.6401223178
  H        18.0601700978       -1.1621333936        3.3838580273
  C        15.4315670970       -1.0610328253       -1.0019893096
  C        14.4376647326       -1.8369227285       -1.6576429367
  C        13.3947830022       -2.4110010242       -0.8832334538
  C        13.4794922517       -2.4707930520        0.5542347021
  C        14.5438786971       -1.8657761062        1.2551966544
  C        17.6270746185        0.0898174656       -0.9955321165
  C        16.4914129075       -0.4335321818       -1.7106530136
  C        16.4590381301       -0.1187205542       -3.1461818133
  C        15.6465582524        0.9600661835       -3.5567642847
  C        15.6350332465        1.3712228885       -4.8606456535
  C        16.4085690347        0.6551054538       -5.8571055713
  C        17.1622976956       -0.4478478600       -5.4553984398
  C        17.2223830789       -0.8134307963       -4.1180029475
  H        17.7567174040       -1.7274827869       -3.8181682458
  H        17.7736364646       -0.9316106306       -6.2258215350
  H        16.4554888834        0.9285800254       -6.9020787359
  H        14.9281210712        2.1609389995       -5.1237196251
  H        14.9419707019        1.4564295809       -2.8817700368
  C        18.7215837059        0.7999204257       -1.6976597623
  C        19.7429178517        1.4120572694       -1.0094273012
  H        20.5841371409        1.9187503351       -1.5120699106
  H        18.6908837834        0.8042753885       -2.8129941392
  C        14.7015302467       -2.3533527844        2.6729342494
  C        15.4513879707       -3.4896176546        3.0758459497
  C        15.2433405819       -4.0243187544        4.3135640148
  C        14.3320167635       -3.4895622016        5.2219682010
  C        13.6311079641       -2.3911761518        4.8892523505
  C        13.8262141187       -1.8231061813        3.6773877504
  H        13.2318814796       -0.8565442031        3.2859933484
  H        12.9499828839       -2.0059834509        5.6265113133
  H        14.2604657009       -4.0284909119        6.1950508738
  H        15.9182183032       -4.8088869008        4.6290317668
  H        16.0460378035       -4.0508420807        2.2663155099
  C        12.4724867337       -3.2256436338        1.2459037442
  C        11.4026036737       -3.9148104871        0.6448481854
  C        11.3391925222       -3.8497568477       -0.7577097463
  C        12.2860445523       -3.1647254043       -1.4661974839
  H        12.1106559976       -3.2702237069       -2.5160008278
  H        10.5410888421       -4.4523774608       -1.2697600236
  H        10.6649856195       -4.4407296521        1.1826328225
  H        12.4497534909       -3.1958346957        2.3481942023
  C        14.4251382476       -2.2483551561       -3.1501154030
  C        15.0955492850       -3.4676432434       -3.3492892542
  C        15.3517597081       -3.9702281879       -4.6213204897
  C        14.8021728989       -3.2618549712       -5.7217410137
  C        14.1058905191       -2.0101221626       -5.5003604406
  C        13.9337753451       -1.4716837408       -4.1619515010
  H        13.4467465582       -0.5249283021       -4.0932693102
  H        13.5975124649       -1.5725587309       -6.3817980457
  H        15.0866036505       -3.5088583600       -6.7517717360
  H        15.9327116779       -4.8492469040       -4.8439200863
  H        15.5234412150       -3.8793514073       -2.4828400821
  C        11.6589782644        6.1051944563        0.4475285821
  C        10.7367249925        6.9559519743        1.1036059100
  C         9.7260319471        7.6098012483        0.3290678623
  C         8.6641087271        8.3771372391        1.0253251845
  C         7.6647897874        8.8789845077        0.3491389296
  C        10.8166318897        7.2430930704        2.6404516238
  C        11.8986203405        7.9563932161        3.1577406056
  C        11.7802905241        8.3380724189        4.5308296333
  C        10.8180438027        7.9639413669        5.3779071678
  C         9.7736491747        7.1365947166        4.8422245809
  C         9.7766274837        6.7971521138        3.4804813441
  H         8.7272767315        8.4384054855        2.1196938840
  H         6.8348733411        9.2959412389        0.8318540414
  H        12.7181566353        8.2612980363        2.5719354716
  H        12.6762214025        8.9173390297        4.8075279538
  H        10.6211692906        8.1943513411        6.4619177460
  H         8.9992357646        6.8069384319        5.4905307097
  H         8.9270237998        6.2097836588        3.2748710397
  C        11.7432056764        6.0317922399       -1.0311081944
  C        12.8587641285        5.3310691907       -1.6792616426
  C        13.8403065364        4.6643363787       -0.9271471715
  C        13.6052046618        4.5278583993        0.4850389000
  C        12.5337841748        5.1769305164        1.1381759537
  C         9.7561736922        7.4821052963       -1.0974260966
  C        10.8384873572        6.8499224159       -1.7819539932
  C        10.9523214392        7.2233764046       -3.2996406347
  C        11.8563376853        8.2485073402       -3.6748371009
  C        11.9840857063        8.7160836963       -4.9470310163
  C        11.1423843298        8.1720439204       -5.9221829872
  C        10.1898918596        7.1437761298       -5.6589796485
  C        10.0807347741        6.6920061757       -4.2926079001
  H         9.4790209645        5.8411941023       -4.0590879919
  H         9.5960225291        6.8152871581       -6.4987422850
  H        11.1681766123        8.4517454622       -6.9351551976
  H        12.7336110608        9.4203491352       -5.2267413050
  H        12.5794174527        8.6004188302       -2.9726762915
  C         8.6450277708        8.1301654925       -1.7960938492
  C         7.6540816571        8.7677973901       -1.0750502392
  H         6.7533755713        9.1042639989       -1.5996610576
  H         8.7869283775        8.2169688153       -2.8852730083
  C        12.4308249401        4.8436567809        2.5835370780
  C        11.6608812939        3.7825486572        3.0165410897
  C        11.5680591912        3.3371720971        4.3154824704
  C        12.4121873198        3.9210593418        5.3326155944
  C        13.4121467158        4.9415335365        4.9020600473
  C        13.2964585318        5.4193234914        3.5686140936
  H        13.9147717152        6.2531205937        3.2193384763
  H        14.1353120489        5.4057230257        5.5988479933
  H        12.3499798805        3.6215625616        6.3274887909
  H        10.9190456325        2.4874888402        4.6862835305
  H        11.0497748280        3.3232121327        2.2250406644
  C        14.5759932388        3.7322905899        1.2575058619
  C        15.6114434701        3.1610551974        0.6116329013
  C        15.8142493451        3.3384459454       -0.8093869081
  C        14.9776454168        4.1179437602       -1.5330961879
  H        15.0488784903        4.2044805125       -2.5973375361
  H        16.6254638172        2.7624190441       -1.3676960554
  H        16.2354512475        2.4395718566        1.1417730320
  H        14.3255993097        3.6228028548        2.2882939577
  C        12.6688427172        5.0086255503       -3.1618898429
  C        11.8261493818        3.9565174513       -3.4269029988
  C        11.6915911051        3.3920249094       -4.7387035223
  C        12.4578900641        3.8417510412       -5.7545170056
  C        13.3195514036        4.9844675483       -5.5829108557
  C        13.4183469959        5.5305558923       -4.2479999149
  H        13.9531666293        6.4020501273       -4.0988808848
  H        13.9183253207        5.4481530504       -6.3887294926
  H        12.3366506610        3.4680972389       -6.7959376334
  H        11.0669546400        2.5788635454       -4.8943190131
  H        11.3825962901        3.4164276310       -2.6089923728
