140

  C         3.4453613298        0.2111818420       14.7591864366
  C         4.4798949705        0.8619530433       15.4526019386
  C         5.5620616874        1.4040144044       14.6975547271
  C         6.5790440094        2.0746863452       15.3818018089
  C         7.6003004418        2.6762921401       14.7938322071
  C         4.3298021854        1.4301122383       16.8155734248
  C         3.5009566862        2.5143285181       17.0039367560
  C         3.5118786134        3.0727887392       18.2468802923
  C         4.0961407471        2.5042019794       19.3534624861
  C         4.8923540557        1.3832932850       19.2026346752
  C         5.0344922320        0.9517672133       17.8663010007
  H         6.5070490260        2.0750861407       16.4603057112
  H         8.3680756615        3.1964323415       15.4027069445
  H         2.8908083869        2.9015572780       16.1631111891
  H         3.0252908762        3.9961535762       18.4393901559
  H         3.8961878204        2.9274116643       20.3566365375
  H         5.4366081346        0.9445187636       20.0386811075
  H         5.7736989665        0.2277130054       17.5510822597
  C         3.5050063155        0.0317399959       13.2622745605
  C         2.5079064083       -0.7473977847       12.6860746252
  C         1.3826757300       -1.2257429718       13.3615030809
  C         1.3238419281       -1.1357771218       14.8457948423
  C         2.3692476514       -0.4250682958       15.4972642819
  C         5.6058252047        1.3598641014       13.2621678463
  C         4.5523725426        0.7433967203       12.5645075807
  C         4.2995157169        1.0639188903       11.0547499657
  C         3.3529422727        1.9750374318       10.6479953813
  C         3.4104041811        2.5564395386        9.3722233356
  C         4.3986698990        2.1579601815        8.4432599093
  C         5.3736820696        1.1688257381        8.8314620965
  C         5.3157497716        0.7075600185       10.1273348310
  H         6.1163374028        0.1131665106       10.5174087073
  H         6.0981760350        0.7400150138        8.1034713077
  H         4.5461351870        2.5626860620        7.4680976068
  H         2.5706775134        3.2146510435        9.1339616013
  H         2.5693664134        2.3342930631       11.2845358952
  C         6.6472776987        2.0890093545       12.6404144566
  C         7.6239171289        2.7249176709       13.3727521194
  H         8.4524826571        3.2735237473       12.8624064142
  H         6.7190243850        2.1417865926       11.5532674392
  C         2.4504856687       -0.7351898565       16.9487468251
  C         3.1598461199       -1.8999303955       17.2504424839
  C         3.0828956225       -2.4223933724       18.5910047508
  C         2.3695336567       -1.8092966594       19.6026115630
  C         1.6324242488       -0.6814922031       19.2575677634
  C         1.6969587255       -0.1616309925       18.0019669412
  H         1.1419842188        0.7561359878       17.8449890025
  H         1.0064618285       -0.1060623771       20.0288232947
  H         2.3113736145       -2.2517473905       20.6189273416
  H         3.6195477469       -3.3271114697       18.7736788775
  H         3.7955650007       -2.5698030679       16.6503471046
  C         0.1330837011       -1.6238163318       15.4811596583
  C        -0.9296871943       -2.1781264422       14.7747783457
  C        -0.8407870485       -2.2437847873       13.3419907377
  C         0.3023015760       -1.8391452473       12.6904095710
  H         0.3646499220       -2.0114934534       11.5909737258
  H        -1.7095937456       -2.6646758049       12.7932788066
  H        -1.8394581036       -2.4458161519       15.2621076802
  H         0.1461562276       -1.6586073237       16.5472635075
  C         2.5286805623       -1.0649747350       11.2429108901
  C         3.2623891536       -2.1272600518       10.7228727297
  C         3.3473177239       -2.5091397300        9.3584483027
  C         2.4687585344       -1.8580978043        8.5222209452
  C         1.5845701290       -0.8157674889        8.9537688166
  C         1.6125140174       -0.4285582215       10.3063872273
  H         0.9738724361        0.3629361839       10.5892601990
  H         0.9594557621       -0.3504053815        8.1316737072
  H         2.5195716529       -2.0528323295        7.4630497813
  H         4.0460883521       -3.3662163253        9.0303694073
  H         3.8333028192       -2.6263610193       11.5315672031
  C        -0.1755629993        7.0470645756       14.5232841592
  C        -1.2164049650        7.7576419063       15.2367376029
  C        -2.2854049121        8.3511132997       14.4444791712
  C        -3.2809402972        9.1284548201       15.0689243957
  C        -4.2539087693        9.7972197688       14.3925757224
  C        -1.2295387763        7.9981414997       16.7125658271
  C        -0.6933524828        9.2172277870       17.1465834134
  C        -0.6745440620        9.5934592425       18.5271577036
  C        -1.3745821614        8.7805857674       19.4416372786
  C        -1.9432391308        7.6100406899       19.0120926105
  C        -1.8833217694        7.2123106757       17.6940625328
  H        -3.2700669408        9.1722929861       16.1492528603
  H        -5.1081043855       10.2733956857       14.9514713287
  H        -0.1421773119        9.8424780150       16.4386391690
  H        -0.1582785603       10.4734322298       18.8993609894
  H        -1.3975463184        9.0393665773       20.5132245435
  H        -2.5906605308        7.0373336415       19.6787172988
  H        -2.5314922693        6.4085034790       17.3634032921
  C        -0.1213019125        7.2412677034       13.0363159565
  C         0.8852593192        6.5056273850       12.2608457289
  C         1.9617526716        5.9664921012       13.0460255829
  C         1.9671329755        5.8620338874       14.4885602854
  C         0.8791634045        6.3605870443       15.1995192007
  C        -2.2504667349        8.4425446125       13.0222316295
  C        -1.1016099999        7.9954885719       12.3586160896
  C        -0.9406275245        8.4206435537       10.8862241622
  C        -0.0483181133        9.4281216019       10.6194228588
  C         0.1721042097        9.9092550413        9.3340617673
  C        -0.5454098523        9.4182321523        8.2715737826
  C        -1.5905698620        8.4297109819        8.4982364356
  C        -1.8118454637        8.0324473500        9.8319164215
  H        -2.4841360204        7.2112684904        9.9802335344
  H        -2.1803229441        7.9235375932        7.6949686393
  H        -0.3701773404        9.7535594058        7.2457952608
  H         0.9364728724       10.6075472369        9.0610528677
  H         0.5840189561        9.7473132570       11.4265819706
  C        -3.2507524297        9.1659120554       12.3312440415
  C        -4.1654116815        9.9127042339       13.0059374266
  H        -4.9404282324       10.4993042162       12.5149078345
  H        -3.1196186508        9.4200895092       11.2938923924
  C         0.7544526314        5.8697557192       16.6189448453
  C         0.0142947002        4.7202915905       16.8302752516
  C        -0.0986580624        4.1798311545       18.0732027954
  C         0.5065990465        4.7845273905       19.1442378358
  C         1.2771344651        5.9904116359       18.9365554133
  C         1.4016818610        6.4833077589       17.6370863636
  H         1.8385868006        7.4609764649       17.4305020410
  H         1.8595136934        6.4793375075       19.7249310685
  H         0.3201318391        4.5071286475       20.2021614757
  H        -0.6836411059        3.2746970451       18.2844756237
  H        -0.4094668695        4.1982025189       15.9809250235
  C         3.0862780263        5.2515345143       15.1707064192
  C         4.1580030477        4.9338897322       14.3994713718
  C         4.1562018244        4.9252335076       12.9422295014
  C         3.0748079609        5.4302146317       12.2758308749
  H         2.9802593447        5.4383473620       11.2070485843
  H         4.9821075347        4.4332185315       12.4473205321
  H         5.1170706892        4.6682106971       14.8692393681
  H         3.1927964542        5.1263835682       16.2754122555
  C         0.7588652584        6.1351838026       10.8120366994
  C        -0.1915509973        5.1797106152       10.4623389027
  C        -0.3147007136        4.6499882402        9.1528614083
  C         0.5013371157        5.1470716017        8.0841015128
  C         1.4489132801        6.0769061534        8.4482786786
  C         1.5481267677        6.6100127244        9.7460589313
  H         2.3271037855        7.3836255655        9.7439268318
  H         2.0449426402        6.5951239583        7.6997104926
  H         0.3193759460        4.7433534221        7.1122431213
  H        -1.1762546732        3.9971611958        8.9337794933
  H        -0.8815306856        4.8200659844       11.1916008765
