140

  C         4.8471656894       -0.2090080238       15.8384577405
  C         5.7872528905        0.4535056413       16.6217840986
  C         6.9206823687        1.0601647687       16.0244728886
  C         7.9801637339        1.6837476607       16.7639643475
  C         8.8671062133        2.5686638640       16.1786943398
  C         5.6110942233        0.7627674335       18.1167039136
  C         4.9591881192        1.9938078389       18.3973370302
  C         5.0522866304        2.4722073181       19.7370157885
  C         6.0345544059        1.8648931213       20.5497961229
  C         6.7167772531        0.6671170099       20.2619701880
  C         6.4732129561        0.1112494363       19.0415983154
  H         8.0691685646        1.4195046900       17.8298776666
  H         9.6248894731        3.0840041558       16.7406792661
  H         4.4043093799        2.5957461897       17.7068392948
  H         4.5088515411        3.3639295054       20.0595525518
  H         6.3503528908        2.3790870364       21.4264466603
  H         7.5715604430        0.3274978280       20.8677825350
  H         6.8597270759       -0.8205017081       18.5237866129
  C         4.9175906001       -0.1913997924       14.3012735512
  C         3.8937606177       -0.8081904222       13.5578927656
  C         2.7403339469       -1.2755283520       14.1532501713
  C         2.7129608324       -1.3858391409       15.6347200173
  C         3.7681619629       -0.9702438321       16.4498275993
  C         7.0132786350        1.1457821154       14.5648736630
  C         5.9384920086        0.5952927303       13.7286170507
  C         5.9565890074        0.8920922686       12.2719234667
  C         5.1480303761        1.9121018137       11.6847561653
  C         5.3403927923        2.3087818643       10.3427591877
  C         6.3416730833        1.6777451603        9.4984001166
  C         7.0689106241        0.6660021916       10.0377812089
  C         6.8950975888        0.2848359251       11.3660543049
  H         7.5222856299       -0.5043721909       11.7598534150
  H         7.8023070497        0.2073755399        9.4278828816
  H         6.5428012358        2.0408206105        8.5018419983
  H         4.6603753729        3.0319541044        9.8431541801
  H         4.4356821586        2.4105268415       12.2879904083
  C         7.9943894177        2.0005516307       14.0139497174
  C         8.9325527887        2.7144355041       14.8034346087
  H         9.5954042078        3.4481883624       14.3771471511
  H         8.1194786835        1.8946764874       12.9562764906
  C         3.8617595448       -1.4770983145       17.8595833102
  C         4.8348724024       -2.4517542013       18.3228321162
  C         4.9445516168       -2.8611807807       19.6980655329
  C         4.0112838111       -2.3166173147       20.5841687329
  C         2.9894855598       -1.4549728405       20.0993947618
  C         2.8908544776       -1.0050772481       18.7866349046
  H         2.2392175533       -0.2712540126       18.3791177367
  H         2.2957175779       -1.0879901009       20.8199884321
  H         3.9618945242       -2.5477101720       21.6324246073
  H         5.6434461112       -3.6890360596       19.8991537226
  H         5.5536323388       -2.9082661419       17.6690754916
  C         1.5599968689       -2.0630929818       16.2048778652
  C         0.5254331068       -2.5356288649       15.4179522587
  C         0.6643842491       -2.5456500420       13.9815334535
  C         1.6832057922       -1.9216672950       13.3970281991
  H         1.7313037836       -1.9974405665       12.3408140421
  H        -0.0583141175       -3.0598125775       13.3482689078
  H        -0.2895693321       -3.1019865100       15.8601665643
  H         1.4507122477       -2.2010058633       17.2656698714
  C         4.0780857934       -1.2388921084       12.1059110308
  C         4.8379638104       -2.3428758455       11.7612307035
  C         4.8444769482       -2.9478735830       10.5044704040
  C         3.9897592881       -2.4030765439        9.4955273393
  C         3.1377386500       -1.3193153415        9.7953850843
  C         3.2689908683       -0.6965861656       11.0712710641
  H         2.7065554621        0.1963206669       11.3756575522
  H         2.5709210814       -0.8573286761        9.0322243695
  H         4.1109832546       -2.7015481814        8.4597007539
  H         5.4672931260       -3.8341256003       10.4155086155
  H         5.4114689191       -2.8680856595       12.5431267920
  C         1.3496905673        7.0412326319       16.0644311323
  C         0.3343320200        7.7437505377       16.7543152850
  C        -0.6758043481        8.3857998234       16.0463655081
  C        -1.6322161564        9.1807780607       16.7491182653
  C        -2.7494180470        9.7439605856       16.2154657719
  C         0.4637434313        8.2030892727       18.1538156463
  C         1.3746216283        9.2417159974       18.3741120819
  C         1.7956534634        9.6362375368       19.7240346834
  C         1.1784010300        9.0764714456       20.8233601815
  C         0.1438105564        8.1111753629       20.5324496280
  C        -0.1832003261        7.6762237435       19.2509784297
  H        -1.3988230503        9.4403320966       17.7436971544
  H        -3.5051950445       10.3368887772       16.7349652845
  H         1.8840039009        9.6468558203       17.4991091009
  H         2.5918757044       10.3528848994       19.7014514674
  H         1.4977048903        9.2534061385       21.8274142660
  H        -0.3486179616        7.5007617787       21.3766596923
  H        -0.8942061733        6.9246250907       19.1523412729
  C         1.3466296267        7.1441951769       14.5953623427
  C         2.3183568816        6.4277343971       13.8194230305
  C         3.4612157635        5.9264315698       14.4873525713
  C         3.5158044945        5.8188421070       15.9445477747
  C         2.3425105735        6.2516486045       16.6995619849
  C        -0.7717126362        8.3631559630       14.6442275424
  C         0.3369820775        7.9053075453       13.9297006404
  C         0.3814325133        8.2264901920       12.5034920201
  C         1.1648062877        9.2265377408       11.9643198483
  C         1.2164631897        9.4622252265       10.6077406015
  C         0.4908647825        8.6426107235        9.7309261035
  C        -0.4236104778        7.6744425368       10.2843227657
  C        -0.4234673178        7.4819813481       11.6467660725
  H        -0.7977928306        6.6108811389       12.1252692503
  H        -1.1744038173        7.2346886856        9.6150718698
  H         0.5458176942        8.8437836484        8.6638327105
  H         1.9101540174       10.1415862260       10.2101796329
  H         1.7152094517        9.8489815091       12.6851213889
  C        -1.9041307548        8.9736734932       14.0045606387
  C        -2.8641548614        9.6448098827       14.7567654809
  H        -3.5930119810       10.2004453700       14.1890599701
  H        -1.8960683819        9.0777062109       12.9223235588
  C         2.3591030771        5.9312380509       18.1754983314
  C         1.5980642249        4.8912132316       18.6525588656
  C         1.5584615800        4.5749757106       20.0102481974
  C         2.2702543954        5.4109283477       20.9026045232
  C         3.0699125732        6.4489506117       20.4063975505
  C         3.1329611434        6.7220403475       19.0265368706
  H         3.7443395326        7.4973949583       18.6449329002
  H         3.7384258832        6.9732081730       21.0802198599
  H         2.3687039998        5.1763609322       21.9435648873
  H         0.9452734238        3.7018551416       20.2895283112
  H         0.9085156375        4.3307726476       18.0314375425
  C         4.6871233873        5.3008484915       16.5599690279
  C         5.6622644080        4.6488203383       15.8034804399
  C         5.4875559979        4.5799715681       14.4352710377
  C         4.4853810081        5.2669982262       13.8042760738
  H         4.5619141887        5.3064508516       12.7508061356
  H         6.2399932027        4.0514555281       13.8483769451
  H         6.4907273199        4.1917546523       16.4032296216
  H         4.8663527053        5.2878875337       17.6306115849
  C         2.2422650098        6.1865860644       12.3833962394
  C         1.4299343310        5.0851058088       12.0444465749
  C         1.4063715689        4.5397705063       10.7322114288
  C         2.3428263711        5.0072169277        9.7741072835
  C         3.2681720639        6.0042072621       10.1101971924
  C         3.1179874636        6.6254749199       11.3804291504
  H         3.8645225061        7.2861176384       11.7162944647
  H         3.9917574136        6.4654058372        9.4186289867
  H         2.5049833018        4.5121546835        8.8011458244
  H         0.7195467927        3.7223696781       10.4843420585
  H         0.6906236933        4.7564393858       12.7553324978
