140

  C         3.8328046146       -0.1256493195       14.3790157889
  C         4.8569434705        0.6657689208       14.9363299305
  C         5.8156285058        1.3305819807       14.1670535348
  C         6.8431305282        2.1790489171       14.6709825633
  C         7.7511284137        2.8232619349       13.8987336990
  C         4.7275968005        1.0023518606       16.3871599606
  C         3.9136059165        2.1283774511       16.7349741775
  C         3.9342366359        2.6754526740       18.0654096777
  C         4.7986050831        2.1710855085       19.0170492865
  C         5.5284342565        1.0385371691       18.6923005910
  C         5.5078139897        0.4954381874       17.4177122261
  H         6.8393208587        2.2749455069       15.7841102346
  H         8.5231636241        3.4482547761       14.3279946279
  H         3.3438184927        2.4977669603       15.8753324822
  H         3.1112880990        3.3108872623       18.3099543379
  H         4.8031162204        2.6245415065       20.0370948702
  H         6.0297357021        0.4721288551       19.4697348247
  H         5.9634789983       -0.4938325240       17.1392711467
  C         3.7068801129       -0.1797213095       12.8941898273
  C         2.6688527090       -0.9814872742       12.2973672799
  C         1.6138219827       -1.6251629311       13.0929719591
  C         1.6792014502       -1.4298386362       14.5712037688
  C         2.8113147736       -0.7434121255       15.1503304967
  C         5.7863155485        1.1614530569       12.7179231958
  C         4.6894921086        0.5505613802       12.0461036097
  C         4.6299826551        0.7807607508       10.5346997846
  C         3.7953286993        1.8791577710       10.1361109056
  C         3.6501458816        2.2532342617        8.8431392473
  C         4.2277585779        1.5167481357        7.7549621523
  C         4.9818655316        0.4077512891        8.1400417103
  C         5.2747506211        0.0624173246        9.4668726732
  H         5.7617660136       -0.9047059598        9.6107067809
  H         5.4308219205       -0.2528114186        7.4222982430
  H         3.9291074823        1.7893513764        6.7678558977
  H         2.8973405954        3.0364339551        8.7116797656
  H         3.4348282161        2.4288370098       11.0138327092
  C         6.8303249995        1.7823895393       11.9620239318
  C         7.7492285391        2.6494097115       12.4399359798
  H         8.4909717087        3.1439748698       11.8372799777
  H         6.7398608542        1.5749852509       10.8713585047
  C         2.8195703297       -0.9777772203       16.6449034902
  C         3.6735352430       -1.9631823194       17.1987387795
  C         3.6348198353       -2.3288266915       18.5333615154
  C         2.5644508210       -1.8827677261       19.3687965457
  C         1.6558537461       -0.9882973709       18.7582293073
  C         1.7952619216       -0.4550386955       17.4585742353
  H         1.1926730110        0.4242720475       17.1670710369
  H         0.7945658208       -0.6766506004       19.3730150478
  H         2.5519575385       -2.2599938356       20.4366693932
  H         4.3219941622       -3.1161107790       18.8572510105
  H         4.3971311880       -2.4238896746       16.4848739242
  C         0.6142632349       -2.0254871923       15.3388716819
  C        -0.5418095866       -2.4564387422       14.7765172678
  C        -0.6767112062       -2.6241670915       13.4006216925
  C         0.4399667320       -2.3206712221       12.6097922102
  H         0.2676748276       -2.5111766197       11.5127915404
  H        -1.4702419908       -3.0956195541       12.9100535251
  H        -1.4379630556       -2.6812458650       15.3817414037
  H         0.6489749422       -2.0753219470       16.3955120575
  C         2.5650936228       -1.2645114563       10.8360828378
  C         3.2539082700       -2.4089449542       10.3711800167
  C         3.2902583386       -2.8348401821        9.0303341123
  C         2.4472916746       -2.1745030710        8.1294170957
  C         1.8554969650       -0.9686623483        8.5637828803
  C         1.8701774124       -0.5323577250        9.8947238347
  H         1.2130362266        0.2536504887       10.1848386575
  H         1.2669867416       -0.4438556105        7.8896695491
  H         2.3127519868       -2.5564397142        7.0704817647
  H         3.7287342561       -3.8290127312        8.7394391614
  H         3.7321149307       -3.0450573011       11.1575008842
  C         0.1432942941        7.1192754881       14.6173240990
  C        -0.6883584624        8.0012231169       15.3386892825
  C        -1.8404518434        8.6437391997       14.7481105563
  C        -2.8005653247        9.4342118234       15.5347833459
  C        -3.9911151180        9.7848493377       15.0558695509
  C        -0.6903539874        8.1996570073       16.7838174803
  C         0.1770452040        9.2165718174       17.2817082846
  C         0.0773431194        9.6864850428       18.6161565718
  C        -1.0009671651        9.2314611578       19.3934414495
  C        -1.8152618730        8.1596831517       18.9634757652
  C        -1.6262096325        7.6272261374       17.6650939086
  H        -2.5018428562        9.8597005980       16.4943204667
  H        -4.6800472463       10.3767050022       15.6590651202
  H         0.9373502042        9.6300918104       16.6385635154
  H         0.7102391969       10.4712229982       18.9949385136
  H        -1.0133871843        9.5725727556       20.4167751209
  H        -2.4797568826        7.6857158489       19.6976498682
  H        -2.2789764265        6.8838633506       17.2226641731
  C         0.0274995826        7.0694410441       13.1880538512
  C         0.9604946624        6.2182199021       12.4430538972
  C         2.0503486636        5.6420544262       13.0953151923
  C         2.0741894081        5.6473978926       14.5542379178
  C         1.1124513595        6.3340818573       15.2701079907
  C        -2.0165398766        8.4460283986       13.3253274516
  C        -1.0282963057        7.8012994925       12.5634468521
  C        -1.1463622680        8.0909164616       11.0835768478
  C        -0.3446442836        9.1039461364       10.4469328040
  C        -0.4252252564        9.2364730927        9.0526594898
  C        -1.4055287786        8.5851273505        8.3291823730
  C        -2.2234344822        7.6429757154        8.9181211749
  C        -2.0629116690        7.3515382551       10.3060128321
  H        -2.7748156332        6.6435717407       10.8291481445
  H        -2.8954080168        7.0884223613        8.3531769917
  H        -1.5118217652        8.5159878802        7.2350148118
  H         0.2139049386        9.9728190434        8.5054132158
  H         0.3815092222        9.6140294163       11.0914729684
  C        -3.2605799117        8.9192571254       12.7997019810
  C        -4.2198904378        9.4944409181       13.6663046155
  H        -5.1883786998        9.8122291898       13.2845267204
  H        -3.5133635298        8.8092058251       11.7457119964
  C         1.0263544014        6.1263922785       16.7707266305
  C         0.2451283315        4.9999133835       17.1437207073
  C         0.2205110536        4.5813929511       18.5073762863
  C         0.9560866226        5.3125475575       19.4378516924
  C         1.7386421454        6.4215769878       19.0506851035
  C         1.8060374726        6.7717430772       17.7095328978
  H         2.4357743529        7.5459195789       17.2736181756
  H         2.1433667223        7.0515199707       19.8404254752
  H         0.9308711989        5.0807606949       20.5075738995
  H        -0.4693567266        3.7932473318       18.7791210353
  H        -0.2894039625        4.4986113299       16.3606660801
  C         3.2737264506        5.2250289512       15.2142295644
  C         4.2675613519        4.6232639998       14.4586032358
  C         4.2029897369        4.4679305358       13.0350589337
  C         3.1397069150        5.0128838079       12.3854427914
  H         3.0443444824        5.0060537469       11.2994296003
  H         4.9828423544        3.9182359143       12.5024554675
  H         5.1275407307        4.2030866705       14.9931037323
  H         3.2335012688        5.2502996960       16.3064680378
  C         0.8764610585        5.9073485639       11.0020898863
  C         0.2002491535        4.7604795032       10.6406735048
  C         0.1969804890        4.3316790415        9.3030355826
  C         0.7921459038        5.1224549220        8.3059250451
  C         1.6078030566        6.2261752260        8.6744279153
  C         1.5892106571        6.6683932183       10.0298738714
  H         2.2269438450        7.4413957941       10.4525525933
  H         2.2211402130        6.7385302550        7.9476199746
  H         0.6794733030        4.8297134252        7.2792046403
  H        -0.2480341318        3.3348947988        9.0364333552
  H        -0.2905510026        4.0948896598       11.3031243780
