140

  C         2.4781991487        0.4691170096       14.9998106453
  C         3.4120290687        1.2011584721       15.7502163802
  C         4.5237656086        1.7776842198       15.0263382754
  C         5.7260529483        2.3297536912       15.6519724180
  C         6.7041848657        3.0059207052       14.9565233677
  C         3.3802020907        1.6743034152       17.1940860844
  C         2.4901319805        2.7463275992       17.5219456170
  C         2.6340488177        3.3402386619       18.7323918393
  C         3.6818092053        2.9776855332       19.6283852620
  C         4.4271603057        1.8450435481       19.4171567497
  C         4.2379216935        1.1705803660       18.1851737146
  H         5.8638397274        2.2122341011       16.7124980145
  H         7.5697475814        3.4997374051       15.3954253172
  H         1.6187616235        2.9245638879       16.9021366345
  H         1.9010576774        4.0849083956       19.0548236226
  H         3.7054957306        3.5712151547       20.5000218189
  H         5.2205810445        1.4489105574       20.1015959361
  H         4.8250226331        0.3286856550       17.8954578605
  C         2.5625005288        0.4306972943       13.5446807667
  C         1.5381365193       -0.2622691358       12.8257982723
  C         0.4724198035       -0.9314881283       13.4684590272
  C         0.4832657531       -0.9213680872       14.9472079814
  C         1.5154059186       -0.3501018697       15.6712879147
  C         4.5394444148        1.8682200830       13.5605292616
  C         3.4812072268        1.2433182573       12.8779711974
  C         3.4162153328        1.5091607477       11.4152481637
  C         2.7363872089        2.6411962334       10.8884111124
  C         2.8397691837        2.9653382093        9.5065206105
  C         3.6271443479        2.1997766108        8.6211236896
  C         4.3551969199        1.1651955625        9.1011007737
  C         4.1268865937        0.7447166503       10.4484237511
  H         4.7438370700       -0.1037587578       10.7555257872
  H         5.2040304217        0.7496467713        8.4952370791
  H         3.7947510473        2.7083917610        7.6584337730
  H         2.3966950187        3.8064102218        9.0329618863
  H         2.1879638601        3.3139586919       11.5371344731
  C         5.5577753855        2.5296417008       12.8953605168
  C         6.5814640319        3.1282006963       13.5392241028
  H         7.3453815264        3.7141155942       12.9630773377
  H         5.5005065668        2.6652601558       11.7904703849
  C         1.5430106213       -0.5808870574       17.1329239987
  C         2.4962684805       -1.5376045916       17.5760284143
  C         2.3946726666       -2.0905203994       18.8791943488
  C         1.5722837324       -1.5485739942       19.9255151507
  C         0.7193626095       -0.5374935244       19.4986557517
  C         0.6837440068       -0.0633871646       18.1173418927
  H        -0.1107857334        0.6567582240       17.8062566688
  H         0.0781893373       -0.0278391635       20.1891950460
  H         1.5240997193       -1.9612335151       20.9382115583
  H         3.0315027630       -3.0018469850       19.1096683824
  H         3.2605552896       -1.8609813001       16.8270933151
  C        -0.6471962862       -1.4068285281       15.6320604399
  C        -1.6581649020       -2.0240919337       14.9147537409
  C        -1.5970002929       -2.1008866372       13.5129764383
  C        -0.6037657636       -1.4804350657       12.7900188451
  H        -0.6971142756       -1.4243444464       11.7189985213
  H        -2.4357567286       -2.6716979221       13.0105583147
  H        -2.5691934362       -2.4299673538       15.4209803364
  H        -0.7011604033       -1.3259156263       16.6746349660
  C         1.4525866346       -0.5390477225       11.2562222404
  C         2.1504527082       -1.6290336549       10.6461377348
  C         2.0300543632       -1.8918416892        9.2983776982
  C         1.2114472372       -1.0780002018        8.5062528789
  C         0.5159371848       -0.0241794397        9.1143314256
  C         0.6123251093        0.1820519316       10.5018707112
  H         0.1225328275        1.0272963161       10.9938181332
  H        -0.1403897284        0.5231411583        8.4215543526
  H         1.3060690964       -1.2051383945        7.4429688760
  H         2.6291326705       -2.6567309008        8.8458562544
  H         2.9911953134       -2.0776387224       11.2147562174
  C        -1.0234327694        7.5852683806       14.8438341144
  C        -2.0518872044        8.3174966657       15.4889330740
  C        -3.1590928779        8.7952258756       14.6993745727
  C        -4.1640663114        9.6403663038       15.3089110089
  C        -5.2841066064       10.0193531619       14.6322086201
  C        -2.0205662472        8.6750404976       16.9372824756
  C        -1.0977497706        9.6070444594       17.4391506571
  C        -1.1839040204       10.1040972660       18.6910958332
  C        -2.2472359964        9.6418301048       19.5024757940
  C        -3.2773624483        8.8126214669       18.9868973014
  C        -3.0930977496        8.2856709255       17.7338263139
  H        -4.1306053795        9.8604426709       16.3532974243
  H        -6.1460912882       10.5032222511       15.1217527428
  H        -0.2478716085        9.9602353709       16.8519253833
  H        -0.5268534112       10.8184892632       19.1199915966
  H        -2.3534735849       10.0977401606       20.5104423834
  H        -4.0233237006        8.4831148606       19.6626878445
  H        -3.8314778577        7.5629218474       17.3989692431
  C        -0.9387060557        7.5931674783       13.3727599755
  C         0.2002511664        7.0317204349       12.7248713823
  C         1.2520230489        6.4359788592       13.5096960219
  C         1.2000432901        6.4271108022       14.8942434322
  C         0.0210879071        6.8711807842       15.5403099394
  C        -3.1389827737        8.7783796132       13.2254418211
  C        -1.9677544888        8.2230316390       12.6010679311
  C        -1.8434294521        8.6212748128       11.1792151777
  C        -1.1638550030        9.8221700185       10.8179507976
  C        -1.2480996485       10.2391512673        9.4796793665
  C        -1.9845435716        9.5396845590        8.5066542542
  C        -2.6444288975        8.3754053270        8.9062636194
  C        -2.5473335271        7.9139670256       10.2115201365
  H        -3.1066752961        7.0292137474       10.4271578607
  H        -3.1662282979        7.8035030798        8.1522103922
  H        -2.0447842259        9.8743119278        7.4906567038
  H        -0.5737334869       11.0085699238        9.1485296028
  H        -0.6473109547       10.3184537886       11.5825280859
  C        -4.3629355307        9.2216820800       12.5391576779
  C        -5.3709949445        9.7723114156       13.2601669088
  H        -6.2160037628       10.0901220811       12.6890007525
  H        -4.5156427253        9.0459585661       11.4831564975
  C        -0.0479742723        6.6396796801       17.0358250966
  C        -0.9357436759        5.6390322220       17.5056619186
  C        -0.8030227159        5.1523814309       18.8396575123
  C        -0.0006310539        5.8707697992       19.7783785572
  C         0.8339673015        6.8791393668       19.2125141630
  C         0.8579434098        7.2075256425       17.8900798124
  H         1.5449895590        7.9868743593       17.4917739666
  H         1.4906870767        7.4146042866       19.9172444069
  H         0.0987721161        5.6681316510       20.8447612232
  H        -1.4671470648        4.3933653522       19.1046537194
  H        -1.5525524407        5.1283580344       16.8401282564
  C         2.2872041147        5.6969954808       15.5679552388
  C         3.3764191022        5.1887367518       14.8668034749
  C         3.4275916614        5.2225485271       13.4912972023
  C         2.4386031526        5.9014698336       12.8387200540
  H         2.4385923549        5.9257553258       11.7609639865
  H         4.2288421342        4.6888060063       12.9482162181
  H         4.0144261265        4.5155091965       15.4173570893
  H         2.1753183909        5.4131132621       16.6246884909
  C         0.1316904512        6.6769167136       11.2726770666
  C        -0.5578590423        5.4919724033       11.0780513257
  C        -0.5765969531        4.8129018161        9.8520223989
  C         0.0924656989        5.4026465013        8.7790957008
  C         0.6988561703        6.6501778218        8.9006830608
  C         0.7835127657        7.3029183225       10.2030861763
  H         1.3067369503        8.1953670910       10.3582873765
  H         1.1194336896        7.0659045390        8.0140589673
  H         0.0111751521        4.9900047225        7.7861943087
  H        -1.1245858107        3.8653356093        9.7785046846
  H        -1.1161013170        5.1138156650       11.9090725929
