140

  C        12.6933854391        0.9698704481        1.1951975841
  C        13.8187249668        1.6873693358        1.8667892450
  C        14.8674189315        2.2302424267        1.1352263212
  C        15.8783526154        3.0274799254        1.7364025042
  C        16.9344490062        3.4852685036        1.0173635714
  C        13.7770299585        2.0821967677        3.3533350802
  C        13.0533960363        3.1480462822        3.9135278336
  C        13.3729095682        3.6210808868        5.2087299478
  C        14.3066337536        2.9603356367        6.0400899657
  C        14.8689892565        1.7780242050        5.4863747153
  C        14.6681402177        1.3720517583        4.1805143931
  H        15.7295162750        3.2439375073        2.8346053407
  H        17.6685298985        4.1004608911        1.4890920159
  H        12.3024194837        3.6212775854        3.2909360117
  H        12.7092237359        4.4584764353        5.5997266506
  H        14.5109041948        3.1405582229        7.0699065623
  H        15.3982790219        1.1489559396        6.1439429481
  H        15.1939320616        0.5595013016        3.6963185005
  C        12.7123867147        0.9496280497       -0.2720189019
  C        11.7216058830        0.1857743271       -0.9533266663
  C        10.6480688450       -0.4065363815       -0.1828707040
  C        10.5918479761       -0.3557664939        1.2923661173
  C        11.6435423113        0.3164117124        1.9577747539
  C        14.8398088551        2.1830703826       -0.3401756672
  C        13.6919544404        1.6892760193       -0.9365161117
  C        13.6162967904        2.0150170892       -2.4276641742
  C        12.7364871918        2.9613250820       -2.9371488507
  C        12.8383133365        3.3988135138       -4.2318812729
  C        13.6272658061        2.6924111151       -5.1602083899
  C        14.5538284460        1.8125652097       -4.6272087724
  C        14.5415406719        1.4525453796       -3.2859737589
  H        15.2565347007        0.7689959566       -2.8990573064
  H        15.2876148736        1.4761998399       -5.3864409478
  H        13.6550505946        2.9216782184       -6.2136403462
  H        12.1704262890        4.2415102665       -4.5105081050
  H        12.1546568646        3.4451428801       -2.2358522948
  C        15.9800245927        2.7271089654       -1.0456635066
  C        16.9842452041        3.3763071141       -0.3845433320
  H        17.8388562053        3.6731596194       -0.9432944488
  H        15.9721902364        2.6959737410       -2.1248592846
  C        11.7819384265       -0.0560188680        3.4192327212
  C        12.6428446281       -1.0987542783        3.8577569537
  C        12.6502650419       -1.5263453676        5.1350153327
  C        11.7851537922       -0.9495557313        6.0884282315
  C        10.9436363839        0.0373089538        5.6957566046
  C        10.9739317395        0.4969805946        4.4131440849
  H        10.3484382638        1.3267379502        4.1460563947
  H        10.3060972037        0.4528090618        6.4733999779
  H        11.7069422522       -1.3147698865        7.1115208257
  H        13.3502162796       -2.2884755292        5.4700511263
  H        13.3157462562       -1.4859955937        3.1179710593
  C         9.5322405604       -1.0722116326        1.9037772813
  C         8.5813198813       -1.7289596392        1.1398981986
  C         8.6565154178       -1.7910843051       -0.2664625188
  C         9.6429048190       -1.1393747104       -0.9012719234
  H         9.6099810266       -1.2443753907       -1.9928078908
  H         7.8905839827       -2.4103986421       -0.7747404950
  H         7.7976806458       -2.2264765531        1.6777745889
  H         9.4168420114       -1.0458015274        2.9417857822
  C        11.9466523821       -0.3635816254       -2.3262734340
  C        12.9471349838       -1.2339260691       -2.6806653419
  C        13.1083279138       -1.7870445013       -3.9829768797
  C        12.1269333881       -1.4082490761       -4.9567029127
  C        11.0881921553       -0.5970388628       -4.6386089258
  C        11.0576395955       -0.0360413819       -3.3640632212
  H        10.2723161620        0.6802972980       -3.1289511383
  H        10.3430718481       -0.3418429957       -5.4010084783
  H        12.2016673389       -1.7336148001       -5.9753192255
  H        13.9997400904       -2.4206149223       -4.2089819306
  H        13.7244696639       -1.4863897706       -1.9456872895
  C         9.2030752985        7.9491321343        1.2272919146
  C         8.1526258967        8.6556835569        1.8579606253
  C         7.0482525478        9.0579929822        1.0759153395
  C         5.9239939363        9.6339958979        1.6880045026
  C         4.8612703180       10.1071331727        1.0018208320
  C         8.3575774035        9.1154742387        3.3123349819
  C         9.2584782363       10.1917345483        3.5018551234
  C         9.5653029073       10.7835600468        4.7287238384
  C         8.8832876971       10.3078221091        5.8906754434
  C         7.9454473232        9.2726961292        5.6954115031
  C         7.5578472282        8.6925827528        4.4403072132
  H         5.8921105346        9.6474379459        2.7122229967
  H         3.9543869123       10.5038426744        1.4774013835
  H         9.8022416677       10.6261828258        2.6541710694
  H        10.2361695499       11.6024843605        4.8082263594
  H         9.0575329098       10.7992166263        6.8629347531
  H         7.4624196523        9.0299969581        6.6159313216
  H         6.8791869846        7.8406960866        4.2682975878
  C         9.2362891425        7.7898738623       -0.2652525650
  C        10.2238106337        6.9498135012       -0.8591039601
  C        11.2752937626        6.4597482837       -0.0005058067
  C        11.3139410821        6.5891855462        1.4323804894
  C        10.2532611670        7.2973209622        1.9799026041
  C         7.1061370353        9.0714911630       -0.4007492075
  C         8.2243430678        8.4715675881       -1.0210109766
  C         8.5307040258        8.9641098335       -2.4132748369
  C         9.5269802853        9.9223253296       -2.5559148791
  C         9.6109260246       10.7421262771       -3.6590568514
  C         8.8254310688       10.4229624476       -4.7530772384
  C         7.8729456551        9.3978297621       -4.6969970252
  C         7.6425148650        8.6984531155       -3.5447470888
  H         6.7417107946        8.0193285172       -3.5573485649
  H         7.1615477785        9.2896724513       -5.5105725213
  H         8.9520032298       11.0792287376       -5.6347521854
  H        10.4019768591       11.4887162102       -3.6372042461
  H        10.2047806856       10.2441797114       -1.7376007828
  C         6.0570327159        9.6850658430       -1.0941352980
  C         4.9464116771       10.0960256150       -0.3699761273
  H         4.0864969134       10.3454260956       -1.0381185965
  H         6.1644548945        9.7613747052       -2.1776357367
  C        10.1394644560        7.1850010686        3.4436478280
  C         9.3478647264        6.1420350448        3.9107674677
  C         9.3793962243        5.7621142512        5.3010535492
  C        10.3826221721        6.3555488143        6.0766396386
  C        11.1127186511        7.4825477921        5.6201399389
  C        11.0085941968        7.8115559612        4.2988376925
  H        11.7049083919        8.6055238564        3.9661466045
  H        12.0056545727        7.7975303040        6.1654131975
  H        10.4185493320        6.2191674267        7.1627537830
  H         8.7937983029        4.9197738080        5.6533454088
  H         8.6048404297        5.7643840551        3.2251108671
  C        12.4496215369        6.0839531171        2.1521723573
  C        13.4564278316        5.4276071567        1.5156620188
  C        13.3628689291        5.2812285138        0.0910766579
  C        12.2956937346        5.7549036172       -0.6081766560
  H        12.2440104802        5.6612095112       -1.6973924213
  H        14.0637021168        4.5420201071       -0.3337491178
  H        14.3390645214        4.9914250362        2.0125476189
  H        12.4676119415        6.2546776979        3.2317399702
  C        10.1398275740        6.5535110770       -2.2843394853
  C         9.1402174997        5.6757324883       -2.8258930777
  C         9.0727372123        5.3872104350       -4.2245687432
  C         9.9335058710        6.0488291700       -5.0541757509
  C        10.9694380415        6.8548936946       -4.5302352784
  C        11.1175989364        7.0666274973       -3.1560124895
  H        11.9745378094        7.6988448527       -2.7243926550
  H        11.7867735654        7.1989149101       -5.2222190615
  H         9.9316878730        5.8216624966       -6.1742459767
  H         8.2043096396        4.8370555435       -4.5678413947
  H         8.2868332901        5.4442334253       -2.2689555627
