140

  C        15.3036909487       -1.2497694130        0.3975778136
  C        16.4018996773       -0.5718206671        1.0092630854
  C        17.3330809223        0.1757510835        0.2636193332
  C        18.4580792746        0.9406611479        0.8545242240
  C        19.3530032706        1.6221661059        0.0404283455
  C        16.3889249938       -0.1901732580        2.4889816483
  C        15.5005307101        0.8797498207        2.7470147589
  C        15.3598311592        1.4021716833        4.0087940662
  C        16.0761227509        0.8281155190        5.0461221344
  C        16.9685771263       -0.2170376300        4.8389076294
  C        17.0626390367       -0.8532431764        3.5601135335
  H        18.6339974121        0.9394263636        1.9774152876
  H        20.1829284768        2.1635168657        0.4570369273
  H        14.8763188419        1.2555105952        1.9640581095
  H        14.6523279494        2.1849805825        4.2888644679
  H        15.9660157621        1.2258233359        6.0465627964
  H        17.5890388400       -0.5468829989        5.6542205493
  H        17.7292267740       -1.7010514546        3.3484400529
  C        15.1934833946       -1.2753859942       -1.0996545855
  C        14.1154922821       -1.9359924486       -1.7738706658
  C        12.9672406272       -2.3444898376       -1.0162442277
  C        13.0899781620       -2.4140259412        0.3696941308
  C        14.2271272097       -1.9404837949        1.0411610174
  C        17.1420157461        0.2596197151       -1.2004541461
  C        16.0456637592       -0.3914388416       -1.8261780961
  C        15.9291483695        0.0306806111       -3.2697427514
  C        15.1387335156        1.1314076327       -3.6277485054
  C        15.2184987428        1.8223186813       -4.8712252007
  C        16.0302882229        1.2327995637       -5.8465533383
  C        16.7465539605        0.0548216720       -5.6054602264
  C        16.7003169840       -0.5820262132       -4.3270641883
  H        17.4106602942       -1.3737378219       -4.0074881811
  H        17.4362155102       -0.2241377530       -6.4291047910
  H        16.2248646203        1.6686585944       -6.8283991018
  H        14.6667527908        2.7500186703       -5.0468662748
  H        14.6666409868        1.5975087711       -2.7686305377
  C        18.0929184948        0.9897200932       -1.9381425676
  C        19.1409563937        1.5665250410       -1.3756502728
  H        19.9719214866        2.0087512290       -2.0011362676
  H        18.0291165074        1.0272922150       -3.0472358693
  C        14.3246290022       -2.2996806021        2.5333935814
  C        15.0905263995       -3.3938995960        3.0181499986
  C        15.1674515582       -3.6914143248        4.4122120575
  C        14.4936656087       -2.8769583450        5.2278506944
  C        13.7259793122       -1.8133451028        4.8261559079
  C        13.6430546499       -1.5791240398        3.4336984900
  H        13.1399648809       -0.6103642952        3.1646098273
  H        13.1593831636       -1.2266510058        5.5783267684
  H        14.5333374367       -3.0188549153        6.2901592162
  H        15.8741583851       -4.5404115350        4.6444851015
  H        15.5302187669       -4.0471655526        2.2557677573
  C        11.9988052061       -2.8874546461        1.1847430242
  C        10.9199067655       -3.4877447469        0.5225557494
  C        10.8216838400       -3.4329451060       -0.8749276544
  C        11.7915280758       -2.7775664308       -1.6088119565
  H        11.7369080434       -2.7175443310       -2.6986937898
  H         9.9599020099       -3.8602031546       -1.3929699474
  H        10.1070980274       -3.9204073104        1.1530559896
  H        12.0601835873       -2.7589868933        2.2707245150
  C        14.1229467984       -2.1612301819       -3.2273264858
  C        14.9162356568       -3.1666826199       -3.8451695414
  C        14.7025724436       -3.4744324404       -5.1887558200
  C        13.7283417545       -2.8177335961       -5.9257887701
  C        12.9730606375       -1.8012171098       -5.3537814819
  C        13.2766188029       -1.3994986460       -4.0524290444
  H        12.7514989920       -0.5025483552       -3.7570686465
  H        12.2760617544       -1.1726000869       -5.9476643171
  H        13.6789324696       -3.0235212220       -6.9840651175
  H        15.3111013792       -4.2237454274       -5.6104632405
  H        15.5724818221       -3.7141853914       -3.1483785816
  C        11.6580196016        6.4463016747        0.4029604020
  C        10.5379086083        7.0540294873        1.0543326037
  C         9.4373878614        7.5339829071        0.3177200098
  C         8.2022930183        7.9138093067        0.9307402824
  C         7.0385420500        8.2611662462        0.2375422801
  C        10.5960226059        7.3395618050        2.4771942873
  C        11.5616076826        8.3018584995        3.0020264753
  C        11.5001037125        8.5695273765        4.3726818060
  C        10.6554258077        7.9330674276        5.2312208118
  C         9.8280913486        6.9233374062        4.7469515629
  C         9.7755246531        6.6886005052        3.3931908388
  H         8.2273593991        7.9852388231        2.0199056421
  H         6.0874179118        8.3717669129        0.7560515519
  H        12.2642459737        8.6417989258        2.2365850055
  H        12.2438638244        9.4095776155        4.7536699830
  H        10.6757709723        8.1970402016        6.3326505156
  H         8.9978374819        6.4738592141        5.3670021774
  H         9.0728739572        5.8736457370        3.0632178596
  C        11.7159497634        6.4821937329       -1.1230510004
  C        12.7453156010        5.7587535281       -1.8292535703
  C        13.8123414818        5.2184921273       -1.1597991138
  C        13.8589256663        5.2699857518        0.3115824441
  C        12.7448483693        5.7257968203        1.0579551758
  C         9.4204031239        7.4602946492       -1.1317020701
  C        10.5935925536        7.1580172292       -1.7605053178
  C        10.5732342921        7.4646834898       -3.2476826371
  C        11.5972850514        8.3325233438       -3.7680743068
  C        11.6226825825        8.6849099553       -5.1044939421
  C        10.8177551519        8.1178120092       -6.0901315126
  C         9.8654157917        7.2046998354       -5.6592771614
  C         9.7904895351        6.9019259847       -4.2511298083
  H         9.0965496338        6.1101488464       -3.8742054124
  H         9.1871885684        6.5001530265       -6.2072629496
  H        10.9145036925        8.3510957346       -7.1022132360
  H        12.2827354053        9.4197412259       -5.4658120932
  H        12.2641071214        8.7816226430       -3.0859921210
  C         8.2425347070        7.9009056680       -1.8280771392
  C         7.0152860420        8.2198271512       -1.2124743065
  H         6.0986512791        8.5767412853       -1.6777878460
  H         8.2900348521        8.2166632609       -2.9133741724
  C        12.6239138391        5.2690993594        2.4507355513
  C        11.7610326783        4.2380645236        2.7088072298
  C        11.5862921306        3.7805987182        4.0535881016
  C        12.4120235489        4.2626632904        5.0687681912
  C        13.4227864071        5.1953393643        4.7601168754
  C        13.3605206648        5.8235481844        3.5056074037
  H        13.9400632668        6.7512999144        3.3798219115
  H        14.1081274000        5.6723277156        5.3969749998
  H        12.2981997522        3.8867640657        6.0815186175
  H        10.7716050753        3.0862811795        4.3354530264
  H        11.2429377069        3.7689221948        1.9403840041
  C        14.9555117209        4.5499864012        0.9676174387
  C        16.0116397740        4.0001001935        0.2659355745
  C        15.9732751069        3.9616688362       -1.1663728939
  C        14.9066801051        4.5162055490       -1.8198577255
  H        14.8660763280        4.4170749703       -2.8830320569
  H        16.7802245257        3.5108732498       -1.6735642229
  H        16.6796368847        3.3979275696        0.7985237310
  H        14.8738366696        4.3669264902        2.0600370741
  C        12.4662040280        5.2815137687       -3.2324011737
  C        11.4265962857        4.3921907593       -3.4558827523
  C        11.2611971106        3.7241214199       -4.7047594057
  C        12.1400320935        4.0931908762       -5.7530924637
  C        13.0465307513        5.0900367555       -5.5823675868
  C        13.3358857812        5.6622604639       -4.3136695050
  H        14.0373452733        6.5055193317       -4.1353214867
  H        13.6300132860        5.5238004847       -6.4379237057
  H        12.0364076253        3.6689264272       -6.6946811484
  H        10.3942012578        3.0584641419       -4.9089528615
  H        10.7369850587        4.1904264909       -2.5777843186
