140

  C        15.4639043597       -0.1851930413        2.4612201199
  C        16.4961421788        0.5234834385        3.1962865809
  C        17.5667655366        1.0827521151        2.4394901118
  C        18.6004360075        1.9211095031        3.0069785821
  C        19.5599754800        2.5291657014        2.2787716445
  C        16.4166477648        0.8388611460        4.7822024561
  C        15.4629115268        1.7822885119        5.1695302883
  C        15.3869199963        2.1735504620        6.5305730973
  C        16.2061259967        1.6128679166        7.4399849448
  C        17.0922630909        0.5171178980        7.1227219513
  C        17.1990375462        0.1569858341        5.6924606257
  H        18.7458607924        1.8294037865        4.0813659061
  H        20.3870886168        2.9647040049        2.8348459289
  H        14.6767914922        2.1414302735        4.4571578888
  H        14.5300664097        2.8666176048        6.8088367120
  H        16.1506553944        1.9919815985        8.4539933584
  H        17.6323486597        0.0478752474        7.9788045935
  H        17.8983896314       -0.6248370048        5.4397280938
  C        15.4354621636       -0.1844896852        0.9782835260
  C        14.3684027454       -0.8330440728        0.2703956455
  C        13.2543216625       -1.4193822638        0.9113828814
  C        13.2817374220       -1.3062176517        2.4045879487
  C        14.3941541343       -0.9061918228        3.1162234140
  C        17.5183810858        1.0537302507        1.0044112562
  C        16.4393241620        0.4933183643        0.2705205878
  C        16.4378000903        0.7643575145       -1.2215184925
  C        15.8052432990        1.9518022145       -1.6946884516
  C        15.9910996705        2.4209913016       -2.9777892269
  C        16.8431819639        1.6474943565       -3.8500280083
  C        17.4913079534        0.4620565003       -3.4125887153
  C        17.3440365918        0.0517795736       -2.0481847369
  H        17.8483210033       -0.8764928792       -1.7421972009
  H        18.0489245931       -0.0952316844       -4.1402924155
  H        16.9407489599        1.9050271155       -4.9122696883
  H        15.6417109047        3.3648403688       -3.2829310149
  H        15.0712276410        2.4538517759       -1.1002178853
  C        18.5631704591        1.8303808731        0.2566516601
  C        19.5262303710        2.5426009319        0.8478913747
  H        20.3377163170        3.0102408184        0.3516814397
  H        18.6757777849        1.7974735882       -0.8289021112
  C        14.5651136193       -1.4432074408        4.5079026512
  C        15.4834903716       -2.4953663191        4.6827596304
  C        15.7618989031       -3.0333431940        6.0225064889
  C        15.0432091251       -2.5442376615        7.1120452254
  C        14.0773670543       -1.5250672834        6.9182954760
  C        13.8664463715       -0.9996904189        5.6717914380
  H        13.1097120427       -0.1970713888        5.3560196053
  H        13.3086612580       -1.3136265547        7.8057493847
  H        15.1616117795       -2.9824410883        8.0916647250
  H        16.5594122177       -3.7187440089        6.1554162708
  H        15.9496323391       -2.8556744508        3.7114671024
  C        12.0776981561       -1.8117495901        3.0493860113
  C        11.0461032252       -2.4185510886        2.3389578817
  C        11.0944094185       -2.5202004878        0.8977119206
  C        12.1841820513       -2.0478790773        0.2135277129
  H        12.1513560757       -2.0527182945       -0.8721535985
  H        10.2704854660       -3.0478819205        0.4205237686
  H        10.1209193224       -2.6616052407        2.8440062407
  H        12.1195659555       -1.7677023014        4.1523405304
  C        14.3856221297       -1.0909953673       -1.1910712444
  C        15.2015621685       -2.1628416496       -1.5007409206
  C        15.3826432507       -2.6425454065       -2.7692914714
  C        14.5471794603       -2.0635976920       -3.7437039940
  C        13.7089156562       -0.9622080048       -3.4939176402
  C        13.6144113311       -0.4253062347       -2.1767530263
  H        13.0419828072        0.4970960369       -1.9573716943
  H        13.0365014071       -0.6409991031       -4.2382277928
  H        14.6466297912       -2.2608069643       -4.8365448244
  H        15.9975880006       -3.5600734230       -3.0064254931
  H        15.7850988272       -2.6089860441       -0.7389697704
  C        11.4443562803        7.0683814592        2.1636203648
  C        10.4297984529        7.8804677141        2.8225728079
  C         9.3756732888        8.4993086910        2.0801143991
  C         8.3210986294        9.2588689685        2.6580078518
  C         7.4811099286       10.0461563381        1.8950447699
  C        10.4743504777        8.2754543303        4.3676695412
  C        11.1593431999        9.4986463725        4.5397069629
  C        11.2439865876       10.1166758754        5.8008301866
  C        10.5260417830        9.5414572542        6.8537448409
  C         9.7929992695        8.3449021955        6.6749070378
  C         9.7326232420        7.7229991009        5.4159627381
  H         8.1906839008        9.2249373274        3.7679045085
  H         6.7082208393       10.6381984751        2.4261619741
  H        11.6183340928        9.9772247304        3.7119823979
  H        11.6336520090       11.1498697326        5.9675062789
  H        10.6111590872        9.8529719050        7.9021424244
  H         9.2729340119        7.8383434206        7.5591483667
  H         9.1130068833        6.8269611062        5.1738894474
  C        11.5334306736        7.0441362837        0.6763309206
  C        12.6056417568        6.3493121902       -0.0428220341
  C        13.6143562407        5.8979544891        0.7966045977
  C        13.5670191515        5.9107000358        2.2571643726
  C        12.4438084335        6.3939158535        2.9004495742
  C         9.5922220248        8.5648023369        0.6250078359
  C        10.6191215313        7.8696443019       -0.0398939026
  C        10.7080866267        8.1435961075       -1.5374818353
  C        11.4846555179        9.2644401911       -1.9814846088
  C        11.5792225515        9.4949934216       -3.3705337087
  C        10.7349118563        8.7472152526       -4.2424284295
  C         9.9717589862        7.6810507765       -3.7598296012
  C         9.9224969274        7.3848038066       -2.3732882049
  H         9.4980050934        6.4625774385       -1.9892946425
  H         9.3362710460        7.0492919440       -4.4585327731
  H        10.6929870053        8.9150839939       -5.3237920063
  H        12.1905451797       10.3319407969       -3.7182671845
  H        11.9976710574        9.8554929376       -1.2684909853
  C         8.6080450534        9.2757068882       -0.1476468622
  C         7.6445112509       10.0387084719        0.4781077408
  H         6.9238628208       10.5948945392       -0.1716336049
  H         8.6080849234        9.2896834574       -1.2163034341
  C        12.3655508935        6.2203713982        4.4215826897
  C        11.4068219600        5.2967317127        4.8298811058
  C        11.4139722789        4.7586930497        6.0889234718
  C        12.3130571734        5.2725418108        6.9693091602
  C        13.3636640071        6.1555454555        6.6041588310
  C        13.3814990111        6.6162185800        5.3059545694
  H        14.1738655974        7.2869605351        4.9647946846
  H        14.0989439545        6.5087401564        7.2685189015
  H        12.2799198764        4.8762131543        8.0132814403
  H        10.6726378254        4.0543161280        6.4339281605
  H        10.6579986207        4.9184638523        4.1566555952
  C        14.6218597472        5.2366863278        2.9373579747
  C        15.6685390850        4.6208476756        2.3237254550
  C        15.6765108359        4.5499367257        0.8816346572
  C        14.7379269158        5.2312950936        0.1832796855
  H        14.8110166167        5.1760392560       -0.8796637948
  H        16.5184911441        4.0616399966        0.4219824604
  H        16.5779774924        4.3191084200        2.7961019744
  H        14.4687248547        5.1670287637        4.0322205921
  C        12.6214490495        5.8774874634       -1.4498922236
  C        12.0765010871        4.6673763089       -2.0019547003
  C        12.2305630201        4.2823001895       -3.3483450371
  C        12.8510473907        5.1134934099       -4.2528896174
  C        13.4195198094        6.2949986627       -3.7669764804
  C        13.3451058016        6.6632788422       -2.4244586541
  H        13.9275964515        7.4427908000       -1.9035425407
  H        14.0627422985        6.8515794472       -4.4176147957
  H        12.9246052454        4.8028307723       -5.3036777558
  H        11.9381523275        3.2690088510       -3.5934475063
  H        11.5886718772        4.0314015948       -1.3226715433
