140

  C        16.6279759154       -0.5509461832        2.6384693643
  C        17.7461472551        0.0984831003        3.2825751903
  C        18.7414580494        0.6149326798        2.5266618673
  C        19.9112905427        1.2345573436        3.0824711768
  C        20.9062985049        1.8978217566        2.3476767284
  C        17.7220194680        0.4530469906        4.7538109500
  C        16.8569823521        1.5706305417        5.0989790997
  C        16.8154421193        2.1000473871        6.3748830989
  C        17.6173624197        1.5647953500        7.4173363073
  C        18.4003892961        0.4052015678        7.1290439622
  C        18.4977743291       -0.1024340826        5.8043072568
  H        20.0558570911        1.2644941411        4.1593886658
  H        21.7323819331        2.4562227369        2.8152395939
  H        16.2579897435        1.9791394177        4.3241785124
  H        16.1217059319        2.9232962013        6.6013585061
  H        17.4509028119        1.9668362957        8.4642857816
  H        18.9801399125       -0.0360366781        7.8625865595
  H        19.1891281215       -0.9427813927        5.5781420244
  C        16.5091350974       -0.3999834224        1.1596347977
  C        15.5029909368       -1.0328793122        0.4398233108
  C        14.4550577623       -1.6952947269        1.0818121224
  C        14.4761066601       -1.7518085422        2.5845500218
  C        15.5446166916       -1.2279024783        3.3102266678
  C        18.6657861890        0.7547625109        1.0508091991
  C        17.4637020756        0.3467346955        0.3938172837
  C        17.3184873192        0.8335804020       -0.9826814852
  C        16.4810852668        1.8905286973       -1.2881932028
  C        16.4427158795        2.3333109853       -2.6815342271
  C        17.2197367427        1.7523578601       -3.6620979709
  C        18.1194191763        0.7137723268       -3.2229924149
  C        18.1448550622        0.2500622872       -1.9657821095
  H        18.7630702878       -0.6234173123       -1.6849695815
  H        18.7739494436        0.2889521016       -4.0295086122
  H        17.2089607532        2.1407433764       -4.6821714632
  H        15.7842266462        3.1250014218       -2.9508748878
  H        15.8466073066        2.3809076102       -0.5065276929
  C        19.6843445199        1.5912843713        0.3846099156
  C        20.7379003329        2.1781073714        0.9812378572
  H        21.2922404418        2.8737966481        0.3364981311
  H        19.4751141912        1.8107768565       -0.7237154072
  C        15.5682148741       -1.5301461455        4.7904973581
  C        16.1731423471       -2.7070032518        5.1215239316
  C        16.1186859848       -3.1831234345        6.4618667331
  C        15.2364155875       -2.5352523053        7.3490788295
  C        14.7134679247       -1.3089054542        7.0295812774
  C        14.8646141897       -0.7239613648        5.7404105105
  H        14.4564275519        0.1726511765        5.3564482998
  H        14.1032829653       -0.7499626450        7.7388672862
  H        14.9719452840       -3.0808884738        8.3829324160
  H        16.5838585367       -4.0904934008        6.7558391682
  H        16.7775103159       -3.3527207808        4.3882397316
  C        13.3534254474       -2.4187116794        3.2077644801
  C        12.3398318923       -2.9733705555        2.4857685325
  C        12.3205408164       -2.9411210286        1.0726923252
  C        13.3696989029       -2.4120186538        0.3819487672
  H        13.3006135513       -2.3644216912       -0.7198963779
  H        11.4210775384       -3.3147509927        0.5823724322
  H        11.5521968922       -3.5134808703        3.0415463712
  H        13.2707693596       -2.4402042613        4.2882089003
  C        15.5557491712       -1.4393893334       -1.0318332978
  C        16.3075425415       -2.5266479289       -1.4859576261
  C        16.1082724854       -3.0508112736       -2.7418746638
  C        15.3014005024       -2.4505625526       -3.6988284329
  C        14.7048905278       -1.1766791401       -3.3409102452
  C        14.7769960071       -0.7906119763       -1.9840838347
  H        14.2637877274        0.1964178694       -1.6465340444
  H        14.0830285105       -0.6744415927       -4.0660971862
  H        15.1574810002       -2.9037533363       -4.7065828052
  H        16.4858515107       -4.1148426106       -2.9308034657
  H        16.8839735152       -3.1426509320       -0.8015232225
  C        12.7690354628        6.6221372249        2.7917516404
  C        11.7457112512        7.3592501064        3.4328413941
  C        10.6561737723        7.8065696609        2.7413215682
  C         9.5528479756        8.4247677302        3.3986392806
  C         8.5684668818        9.0469021831        2.6723127482
  C        11.8531832182        7.7953476087        4.8906688956
  C        12.7768411379        8.8457292072        5.1938496599
  C        12.8707950787        9.3564432155        6.4988093270
  C        12.1006130167        8.8159825900        7.4980975386
  C        11.1845656635        7.7718978761        7.2123309944
  C        11.1147213125        7.2572805652        5.9144477069
  H         9.5233199689        8.3779609438        4.4959808108
  H         7.8096895343        9.6611198405        3.1833536953
  H        13.5957818138        9.1116215238        4.4935147470
  H        13.5303124039       10.2155944427        6.6905807675
  H        12.1797196383        9.2839930836        8.5297127505
  H        10.6246217458        7.2561352154        8.0037321972
  H        10.4207103868        6.4657769692        5.7016649320
  C        12.8297734352        6.6065933686        1.2888685246
  C        13.8123877273        5.9419968097        0.5589094615
  C        14.9165904992        5.3109494669        1.2766950728
  C        14.8712755413        5.2771428320        2.7515674458
  C        13.7300703421        5.8121243797        3.4202350686
  C        10.6856496930        7.7830936624        1.2964408692
  C        11.7360841176        7.2196706777        0.6267316224
  C        11.8134035292        7.6705296924       -0.7694919850
  C        12.4785696181        8.8448568772       -1.0962875501
  C        12.2991275447        9.4433409723       -2.3393082862
  C        11.4978888295        8.9246059014       -3.3412742328
  C        10.9191887245        7.6230659615       -3.0059443444
  C        11.0297717384        7.0764788709       -1.7253004534
  H        10.5761513467        6.1311178853       -1.4352404957
  H        10.2823466635        7.1087614097       -3.7649523781
  H        11.4136294984        9.3256603075       -4.3355280453
  H        12.9213242775       10.2780616200       -2.5246747566
  H        12.9835581461        9.3529738625       -0.3021310645
  C         9.6695613128        8.5250369253        0.5846859785
  C         8.6628385926        9.2050938098        1.2462771462
  H         7.9478287648        9.8649798840        0.7722469303
  H         9.7490220899        8.7767302545       -0.4521433055
  C        13.6937270835        5.4684821873        4.8559443573
  C        12.8832617016        4.4083606728        5.3133255962
  C        12.7556951068        4.0271861686        6.6420186465
  C        13.4462595014        4.7846947029        7.5914785932
  C        14.2125611842        5.8716904787        7.1947015307
  C        14.3709314426        6.1929272870        5.8105833865
  H        14.6928280492        7.1924476244        5.5892637289
  H        14.7709599200        6.4822801611        7.9178345167
  H        13.4103015462        4.4674747825        8.6553500945
  H        12.0622657476        3.2371575673        6.8758350447
  H        12.3196168628        3.9005093507        4.5812171361
  C        15.8540284846        4.5544610188        3.4760256724
  C        16.9129137215        3.9643634360        2.7585834930
  C        16.9283609187        3.9470680521        1.3660590195
  C        16.0313249170        4.6544753642        0.6103576980
  H        16.1136171333        4.6595140783       -0.4912783345
  H        17.8452556503        3.5203738119        0.9333732566
  H        17.5246291849        3.2956040232        3.3365810220
  H        15.8959034243        4.4688731233        4.5876614189
  C        13.8118363345        5.7512911182       -0.8947412188
  C        13.1129016777        4.7074333886       -1.5267072168
  C        13.2902627768        4.3633918188       -2.8686624696
  C        14.2574263119        5.0254977728       -3.6333951604
  C        14.9422718631        6.0623314438       -3.0161758105
  C        14.6928936333        6.4688948357       -1.7460354537
  H        15.1280371788        7.3607917724       -1.3064076990
  H        15.6397217195        6.5917346007       -3.7207138042
  H        14.3641300341        4.6693915427       -4.6042064584
  H        12.7508237067        3.4851167110       -3.2401765539
  H        12.4618242446        4.0942767184       -0.9322526402
